10018535_7-oxodehydroabietic acid
                    3D
 Schrodinger Suite 2021-3.
 48 50  0  0  1  0            999 V2000
   -0.5813   -0.8295   -1.1193 C   0  0  0  0  0  0
   -0.0233    0.0806   -0.0093 C   0  0  0  0  0  0
   -0.5917    1.5056   -0.1341 C   0  0  0  0  0  0
    1.4986    0.0714    0.0029 C   0  0  0  0  0  0
    2.2076   -0.4510    1.0808 C   0  0  0  0  0  0
    3.6068   -0.5050    1.0892 C   0  0  0  0  0  0
    4.3526   -0.0138   -0.0013 C   0  0  0  0  0  0
    3.6346    0.5304   -1.0747 C   0  0  0  0  0  0
    2.2424    0.5653   -1.0782 C   0  0  0  0  0  0
    5.8819   -0.0250    0.0651 C   0  0  0  0  0  0
    6.5630    0.0682   -1.3197 C   0  0  0  0  0  0
    6.3835   -1.1893   -2.1748 C   0  0  0  0  0  0
    6.9416   -2.4096   -1.4335 C   0  0  0  0  0  0
    6.3029   -2.6421   -0.0495 C   0  0  0  0  0  0
    6.3844   -1.3184    0.7840 C   0  0  0  0  0  0
    5.7442   -1.4717    2.1791 C   0  0  0  0  0  0
    4.2729   -1.1303    2.2777 C   0  0  0  0  0  0
    3.6348   -1.3516    3.3021 O   0  0  0  0  0  0
    4.8851   -3.2137   -0.2036 C   0  0  0  0  0  0
    7.2163   -3.6719    0.7744 C   0  0  0  0  0  0
    6.5945   -4.5112    1.4728 O   0  0  0  0  0  0
    8.4526   -3.4770    0.6777 O   0  5  0  0  0  0
    6.3022    1.2300    0.8754 C   0  0  0  0  0  0
   -0.2016   -1.8503   -1.0158 H   0  0  0  0  0  0
   -0.2856   -0.4638   -2.1093 H   0  0  0  0  0  0
   -1.6771   -0.8622   -1.0880 H   0  0  0  0  0  0
   -0.3573   -0.3270    0.9538 H   0  0  0  0  0  0
   -0.2198    2.1489    0.6693 H   0  0  0  0  0  0
   -1.6873    1.4961   -0.0897 H   0  0  0  0  0  0
   -0.3025    1.9626   -1.0874 H   0  0  0  0  0  0
    1.6891   -0.8498    1.9485 H   0  0  0  0  0  0
    4.1667    0.9193   -1.9360 H   0  0  0  0  0  0
    1.7278    0.9781   -1.9436 H   0  0  0  0  0  0
    6.2301    0.9701   -1.8506 H   0  0  0  0  0  0
    7.6371    0.2103   -1.1373 H   0  0  0  0  0  0
    5.3200   -1.3304   -2.4077 H   0  0  0  0  0  0
    6.8967   -1.0544   -3.1377 H   0  0  0  0  0  0
    6.8151   -3.3142   -2.0436 H   0  0  0  0  0  0
    8.0187   -2.2907   -1.2716 H   0  0  0  0  0  0
    7.4625   -1.1811    0.9354 H   0  0  0  0  0  0
    5.8662   -2.5041    2.5279 H   0  0  0  0  0  0
    6.2528   -0.8384    2.9180 H   0  0  0  0  0  0
    4.2222   -2.5748   -0.7989 H   0  0  0  0  0  0
    4.4204   -3.3948    0.7674 H   0  0  0  0  0  0
    4.9521   -4.1915   -0.6913 H   0  0  0  0  0  0
    7.3876    1.2386    1.0278 H   0  0  0  0  0  0
    5.8204    1.2674    1.8565 H   0  0  0  0  0  0
    6.0226    2.1440    0.3371 H   0  0  0  0  0  0
  1  2  1  0  0  0
  1 24  1  0  0  0
  1 25  1  0  0  0
  1 26  1  0  0  0
  2  3  1  0  0  0
  2  4  1  0  0  0
  2 27  1  0  0  0
  3 28  1  0  0  0
  3 29  1  0  0  0
  3 30  1  0  0  0
  4  9  1  0  0  0
  4  5  2  0  0  0
  5  6  1  0  0  0
  5 31  1  0  0  0
  6 17  1  0  0  0
  6  7  2  0  0  0
  7  8  1  0  0  0
  7 10  1  0  0  0
  8  9  2  0  0  0
  8 32  1  0  0  0
  9 33  1  0  0  0
 10 15  1  0  0  0
 10 11  1  0  0  0
 10 23  1  0  0  0
 11 12  1  0  0  0
 11 34  1  0  0  0
 11 35  1  0  0  0
 12 13  1  0  0  0
 12 36  1  0  0  0
 12 37  1  0  0  0
 13 14  1  0  0  0
 13 38  1  0  0  0
 13 39  1  0  0  0
 14 15  1  0  0  0
 14 19  1  0  0  0
 14 20  1  0  0  0
 15 16  1  0  0  0
 15 40  1  0  0  0
 16 17  1  0  0  0
 16 41  1  0  0  0
 16 42  1  0  0  0
 17 18  2  0  0  0
 19 43  1  0  0  0
 19 44  1  0  0  0
 19 45  1  0  0  0
 20 21  2  0  0  0
 20 22  1  0  0  0
 23 46  1  0  0  0
 23 47  1  0  0  0
 23 48  1  0  0  0
M  END
>  <i_m_Spin_multiplicity> (1)
1

>  <s_j_Task> (1)
Single Point

>  <s_j_QM_Method> (1)
DFT(b3lyp-d3)

>  <s_j_QM_Basis> (1)
cc-pvtz(-f)

>  <i_j_Number_of_canonical_orbitals> (1)
739

>  <i_j_Geometry_convergence_category> (1)
0

>  <r_j_Gas_Phase_Energy> (1)
-1003.33283361371

>  <r_j_Final_Energy> (1)
-1003.33283361371

>  <r_j_HOMO> (1)
-0.076945893296567

>  <r_j_LUMO> (1)
0.0298660294626559

>  <r_j_Polarizability> (1)
238.223596270598

>  <r_j_QM_Dipole_(debye)> (1)
15.8822492623572

>  <r_j_QM_Dipole_X_(debye)> (1)
-10.0122100952143

>  <r_j_QM_Dipole_Y_(debye)> (1)
11.0627273918388

>  <r_j_QM_Dipole_Z_(debye)> (1)
-5.44220114427922

>  <r_j_Lowest_Frequency_(cm-1)> (1)
43.9730986803664

>  <r_j_Highest_Frequency_(cm-1)> (1)
3146.48302063587

>  <r_j_2nd_Lowest_Frequency_(cm-1)> (1)
71.7294659829078

>  <i_j_Num_Negative_Frequencies> (1)
0

>  <r_j_Zero_Point_Energy_(kcal/mol)> (1)
256.57707815539

>  <r_j_Entropy_(cal/mol/K)_298.15K_1.00E+00atm> (1)
140.226201183597

>  <r_j_Enthalpy_(kcal/mol)_298.15K_1.00E+00atm> (1)
13.2660578499106

>  <r_j_Free_Energy_(kcal/mol)_298.15K_1.00E+00atm> (1)
-28.5423840329787

>  <r_j_Internal_Energy_(kcal/mol)_298.15K_1.00E+00atm> (1)
12.6735722610833

>  <r_j_Heat_Capacity_(cal/mol/K)_298.15K_1.00E+00atm> (1)
84.462157379291

>  <r_j_ln(Q)_298.15K_1.00E+00atm> (1)
48.1739717745263

>  <r_j_Total_Internal_Energy_(au)_298.15K_1.00E+00atm> (1)
-1002.90375538735

>  <r_j_Total_Enthalpy_(au)_298.15K_1.00E+00atm> (1)
-1002.90281120145

>  <r_j_Total_Free_Energy_(au)_298.15K_1.00E+00atm> (1)
-1002.96943719498

>  <r_lp_tautomer_probability> (1)
0.99995

>  <r_epik_Ionization_Penalty> (1)
  0.0031

>  <r_epik_Ionization_Penalty_Charging> (1)
  0.0031

>  <r_epik_Ionization_Penalty_Neutral> (1)
  0.0000

>  <r_epik_State_Penalty> (1)
  0.0022

>  <r_epik_Charging_Adjusted_Penalty> (1)
0.00521235

>  <i_epik_Tot_Q> (1)
-1

>  <i_epik_Tot_abs_Q> (1)
1

>  <s_lp_Force_Field> (1)
S-OPLS

>  <r_lp_Energy> (1)
47.8135

>  <b_lp_Chiralities_Consistent> (1)
1

$$$$
