10037_1,2-propadiene
                    3D
 Schrodinger Suite 2021-3.
  7  6  0  0  1  0            999 V2000
   -0.7453    1.2431    0.2828 C   0  0  0  0  0  0
    0.1711    0.3137    0.3424 C   0  0  0  0  0  0
    1.0874   -0.6159    0.4023 C   0  0  0  0  0  0
   -1.7694    1.0118    0.0001 H   0  0  0  0  0  0
   -0.5156    2.2810    0.5114 H   0  0  0  0  0  0
    1.6962   -0.8685   -0.4625 H   0  0  0  0  0  0
    1.2739   -1.1693    1.3196 H   0  0  0  0  0  0
  1  2  2  0  0  0
  1  4  1  0  0  0
  1  5  1  0  0  0
  2  3  2  0  0  0
  3  6  1  0  0  0
  3  7  1  0  0  0
M  END
>  <i_m_Spin_multiplicity> (1)
1

>  <s_j_Task> (1)
Single Point

>  <s_j_QM_Method> (1)
DFT(b3lyp-d3)

>  <s_j_QM_Basis> (1)
cc-pvtz(-f)

>  <i_j_Number_of_canonical_orbitals> (1)
104

>  <i_j_Geometry_convergence_category> (1)
1

>  <r_j_Gas_Phase_Energy> (1)
-116.703123571732

>  <r_j_Final_Energy> (1)
-116.703123571732

>  <r_j_HOMO> (1)
-0.272873596504707

>  <r_j_LUMO> (1)
0.00296388137277448

>  <r_j_Polarizability> (1)
36.2649866413267

>  <r_j_QM_Dipole_(debye)> (1)
0.00176874467533865

>  <r_j_QM_Dipole_X_(debye)> (1)
0.000404457464721892

>  <r_j_QM_Dipole_Y_(debye)> (1)
0.00087311457599863

>  <r_j_QM_Dipole_Z_(debye)> (1)
-0.00148409663531331

>  <r_j_Lowest_Frequency_(cm-1)> (1)
395.86987208741

>  <r_j_Highest_Frequency_(cm-1)> (1)
3152.27335202117

>  <r_j_2nd_Lowest_Frequency_(cm-1)> (1)
395.99619114276

>  <i_j_Num_Negative_Frequencies> (1)
0

>  <r_j_Zero_Point_Energy_(kcal/mol)> (1)
34.3259675928125

>  <r_j_Entropy_(cal/mol/K)_298.15K_1.00E+00atm> (1)
60.501705889735

>  <r_j_Enthalpy_(kcal/mol)_298.15K_1.00E+00atm> (1)
2.93342645575927

>  <r_j_Free_Energy_(kcal/mol)_298.15K_1.00E+00atm> (1)
-15.1051571552652

>  <r_j_Internal_Energy_(kcal/mol)_298.15K_1.00E+00atm> (1)
2.340940866932

>  <r_j_Heat_Capacity_(cal/mol/K)_298.15K_1.00E+00atm> (1)
11.6204408328713

>  <r_j_ln(Q)_298.15K_1.00E+00atm> (1)
25.4945562223097

>  <r_j_Total_Internal_Energy_(au)_298.15K_1.00E+00atm> (1)
-116.644691133319

>  <r_j_Total_Enthalpy_(au)_298.15K_1.00E+00atm> (1)
-116.643746947426

>  <r_j_Total_Free_Energy_(au)_298.15K_1.00E+00atm> (1)
-116.672493260388

>  <r_lp_tautomer_probability> (1)
1

>  <r_epik_Ionization_Penalty> (1)
  0.0000

>  <r_epik_Ionization_Penalty_Charging> (1)
  0.0000

>  <r_epik_Ionization_Penalty_Neutral> (1)
  0.0000

>  <r_epik_State_Penalty> (1)
  0.0000

>  <r_epik_Charging_Adjusted_Penalty> (1)
0

>  <i_epik_Tot_Q> (1)
0

>  <i_epik_Tot_abs_Q> (1)
0

>  <s_lp_Force_Field> (1)
S-OPLS

>  <r_lp_Energy> (1)
-20.9006

>  <b_lp_Chiralities_Consistent> (1)
1

$$$$
