10115_17ß(H),21ß(H)-Hopane
                    3D
 Schrodinger Suite 2021-3.
 82 86  0  0  1  0            999 V2000
   -0.5539   -0.5740    1.4381 C   0  0  0  0  0  0
   -0.0216    0.1752    0.2068 C   0  0  0  0  0  0
   -0.8915   -0.1218   -1.0242 C   0  0  0  0  0  0
    1.4847   -0.1046    0.0008 C   0  0  0  0  0  0
    1.8824   -1.5976   -0.2490 C   0  0  0  0  0  0
    2.9556   -1.5864   -1.3800 C   0  0  0  0  0  0
    3.4625   -0.1227   -1.4337 C   0  0  0  0  0  0
    2.1267    0.6169   -1.1929 C   0  0  0  0  0  0
    2.2463    2.1400   -1.1686 C   0  0  0  0  0  0
    3.2528    2.6499   -2.2421 C   0  0  0  0  0  0
    3.5154    1.6471   -3.4025 C   0  0  0  0  0  0
    4.1671    0.3717   -2.7535 C   0  0  0  0  0  0
    4.4803   -0.7003   -3.8042 C   0  0  0  0  0  0
    5.4217   -0.1330   -4.8772 C   0  0  0  0  0  0
    4.8579    1.1453   -5.5277 C   0  0  0  0  0  0
    4.5440    2.2645   -4.4683 C   0  0  0  0  0  0
    3.8827    3.5036   -5.1843 C   0  0  0  0  0  0
    4.0416    3.5165   -6.7175 C   0  0  0  0  0  0
    5.4800    3.1062   -7.0609 C   0  0  0  0  0  0
    5.6443    1.5668   -6.8447 C   0  0  0  0  0  0
    7.1656    1.2756   -6.8093 C   0  0  0  0  0  0
    7.8830    1.8037   -8.0668 C   0  0  0  0  0  0
    7.6293    3.2972   -8.3185 C   0  0  0  0  0  0
    6.1330    3.7136   -8.3411 C   0  0  0  0  0  0
    5.4555    3.3290   -9.6713 C   0  0  0  0  0  0
    6.0880    5.2557   -8.2432 C   0  0  0  0  0  0
    5.0040    0.7045   -7.9640 C   0  0  0  0  0  0
    5.8412    2.7556   -3.7751 C   0  0  0  0  0  0
    2.1634    1.3219   -4.1277 C   0  0  0  0  0  0
    4.4596    0.0880   -0.2694 C   0  0  0  0  0  0
   -0.5278   -1.6587    1.2817 H   0  0  0  0  0  0
   -1.5915   -0.2963    1.6531 H   0  0  0  0  0  0
    0.0452   -0.3523    2.3284 H   0  0  0  0  0  0
   -0.1103    1.2522    0.4142 H   0  0  0  0  0  0
   -0.8111   -1.1705   -1.3325 H   0  0  0  0  0  0
   -0.6161    0.4995   -1.8818 H   0  0  0  0  0  0
   -1.9462    0.0734   -0.8032 H   0  0  0  0  0  0
    1.9788    0.2393    0.9197 H   0  0  0  0  0  0
    2.2725   -2.0525    0.6665 H   0  0  0  0  0  0
    1.0188   -2.2013   -0.5446 H   0  0  0  0  0  0
    3.7580   -2.3097   -1.2007 H   0  0  0  0  0  0
    2.4912   -1.8551   -2.3344 H   0  0  0  0  0  0
    1.5046    0.3592   -2.0524 H   0  0  0  0  0  0
    1.2557    2.5825   -1.3268 H   0  0  0  0  0  0
    2.5716    2.4814   -0.1777 H   0  0  0  0  0  0
    2.9130    3.6109   -2.6428 H   0  0  0  0  0  0
    4.2058    2.8501   -1.7442 H   0  0  0  0  0  0
    5.1493    0.7133   -2.4158 H   0  0  0  0  0  0
    4.9476   -1.5685   -3.3241 H   0  0  0  0  0  0
    3.5645   -1.0721   -4.2809 H   0  0  0  0  0  0
    6.4023    0.0660   -4.4285 H   0  0  0  0  0  0
    5.5929   -0.8947   -5.6467 H   0  0  0  0  0  0
    3.8726    0.8549   -5.9064 H   0  0  0  0  0  0
    2.8223    3.5850   -4.9325 H   0  0  0  0  0  0
    4.3455    4.4175   -4.7934 H   0  0  0  0  0  0
    3.3203    2.8376   -7.1892 H   0  0  0  0  0  0
    3.7991    4.5162   -7.0896 H   0  0  0  0  0  0
    6.0935    3.5605   -6.2737 H   0  0  0  0  0  0
    7.6100    1.7447   -5.9223 H   0  0  0  0  0  0
    7.3521    0.2001   -6.7160 H   0  0  0  0  0  0
    8.9619    1.6334   -7.9669 H   0  0  0  0  0  0
    7.5745    1.2225   -8.9434 H   0  0  0  0  0  0
    8.1239    3.8688   -7.5197 H   0  0  0  0  0  0
    8.1086    3.6065   -9.2566 H   0  0  0  0  0  0
    5.8159    3.9812  -10.4749 H   0  0  0  0  0  0
    4.3690    3.4539   -9.6076 H   0  0  0  0  0  0
    5.6551    2.3022   -9.9765 H   0  0  0  0  0  0
    6.7333    5.7006   -9.0092 H   0  0  0  0  0  0
    6.4382    5.6074   -7.2660 H   0  0  0  0  0  0
    5.0791    5.6492   -8.4012 H   0  0  0  0  0  0
    5.5974    0.6663   -8.8764 H   0  0  0  0  0  0
    4.0080    1.0670   -8.2349 H   0  0  0  0  0  0
    4.8941   -0.3292   -7.6201 H   0  0  0  0  0  0
    6.5513    3.1411   -4.5074 H   0  0  0  0  0  0
    6.3592    1.9749   -3.2158 H   0  0  0  0  0  0
    5.6330    3.5745   -3.0816 H   0  0  0  0  0  0
    1.8929    0.2664   -4.0533 H   0  0  0  0  0  0
    2.1850    1.5516   -5.1947 H   0  0  0  0  0  0
    1.3328    1.8968   -3.7083 H   0  0  0  0  0  0
    4.7109    1.1458   -0.1399 H   0  0  0  0  0  0
    5.3913   -0.4496   -0.4798 H   0  0  0  0  0  0
    4.0823   -0.2835    0.6874 H   0  0  0  0  0  0
  1  2  1  0  0  0
  1 31  1  0  0  0
  1 32  1  0  0  0
  1 33  1  0  0  0
  2  3  1  0  0  0
  2  4  1  0  0  0
  2 34  1  0  0  0
  3 35  1  0  0  0
  3 36  1  0  0  0
  3 37  1  0  0  0
  4  8  1  0  0  0
  4  5  1  0  0  0
  4 38  1  0  0  0
  5  6  1  0  0  0
  5 39  1  0  0  0
  5 40  1  0  0  0
  6  7  1  0  0  0
  6 41  1  0  0  0
  6 42  1  0  0  0
  7 12  1  0  0  0
  7  8  1  0  0  0
  7 30  1  0  0  0
  8  9  1  0  0  0
  8 43  1  0  0  0
  9 10  1  0  0  0
  9 44  1  0  0  0
  9 45  1  0  0  0
 10 11  1  0  0  0
 10 46  1  0  0  0
 10 47  1  0  0  0
 11 16  1  0  0  0
 11 12  1  0  0  0
 11 29  1  0  0  0
 12 13  1  0  0  0
 12 48  1  0  0  0
 13 14  1  0  0  0
 13 49  1  0  0  0
 13 50  1  0  0  0
 14 15  1  0  0  0
 14 51  1  0  0  0
 14 52  1  0  0  0
 15 20  1  0  0  0
 15 16  1  0  0  0
 15 53  1  0  0  0
 16 17  1  0  0  0
 16 28  1  0  0  0
 17 18  1  0  0  0
 17 54  1  0  0  0
 17 55  1  0  0  0
 18 19  1  0  0  0
 18 56  1  0  0  0
 18 57  1  0  0  0
 19 24  1  0  0  0
 19 20  1  0  0  0
 19 58  1  0  0  0
 20 21  1  0  0  0
 20 27  1  0  0  0
 21 22  1  0  0  0
 21 59  1  0  0  0
 21 60  1  0  0  0
 22 23  1  0  0  0
 22 61  1  0  0  0
 22 62  1  0  0  0
 23 24  1  0  0  0
 23 63  1  0  0  0
 23 64  1  0  0  0
 24 25  1  0  0  0
 24 26  1  0  0  0
 25 65  1  0  0  0
 25 66  1  0  0  0
 25 67  1  0  0  0
 26 68  1  0  0  0
 26 69  1  0  0  0
 26 70  1  0  0  0
 27 71  1  0  0  0
 27 72  1  0  0  0
 27 73  1  0  0  0
 28 74  1  0  0  0
 28 75  1  0  0  0
 28 76  1  0  0  0
 29 77  1  0  0  0
 29 78  1  0  0  0
 29 79  1  0  0  0
 30 80  1  0  0  0
 30 81  1  0  0  0
 30 82  1  0  0  0
M  END
>  <i_m_Spin_multiplicity> (1)
1

>  <s_j_Task> (1)
Single Point

>  <s_j_QM_Method> (1)
DFT(b3lyp-d3)

>  <s_j_QM_Basis> (1)
cc-pvtz(-f)

>  <i_j_Number_of_canonical_orbitals> (1)
1134

>  <i_j_Geometry_convergence_category> (1)
3

>  <r_j_Gas_Phase_Energy> (1)
-1174.98397402481

>  <r_j_Final_Energy> (1)
-1174.98397402481

>  <r_j_HOMO> (1)
-0.219389696472556

>  <r_j_LUMO> (1)
0.030660534378885

>  <r_j_Polarizability> (1)
332.692212531244

>  <r_j_QM_Dipole_(debye)> (1)
0.145608863265655

>  <r_j_QM_Dipole_X_(debye)> (1)
0.110581549560477

>  <r_j_QM_Dipole_Y_(debye)> (1)
0.0894145084477282

>  <r_j_QM_Dipole_Z_(debye)> (1)
-0.031284303370401

>  <r_j_Lowest_Frequency_(cm-1)> (1)
50.9093188997642

>  <r_j_Highest_Frequency_(cm-1)> (1)
3106.00367791819

>  <r_j_2nd_Lowest_Frequency_(cm-1)> (1)
62.4138946578296

>  <i_j_Num_Negative_Frequencies> (1)
0

>  <r_j_Zero_Point_Energy_(kcal/mol)> (1)
481.767688674081

>  <r_j_Entropy_(cal/mol/K)_298.15K_1.00E+00atm> (1)
170.083897858067

>  <r_j_Enthalpy_(kcal/mol)_298.15K_1.00E+00atm> (1)
18.4603616417954

>  <r_j_Free_Energy_(kcal/mol)_298.15K_1.00E+00atm> (1)
-32.2501525045871

>  <r_j_Internal_Energy_(kcal/mol)_298.15K_1.00E+00atm> (1)
17.8678760529682

>  <r_j_Heat_Capacity_(cal/mol/K)_298.15K_1.00E+00atm> (1)
126.35511931794

>  <r_j_ln(Q)_298.15K_1.00E+00atm> (1)
54.4319610683205

>  <r_j_Total_Internal_Energy_(au)_298.15K_1.00E+00atm> (1)
-1174.18775406541

>  <r_j_Total_Enthalpy_(au)_298.15K_1.00E+00atm> (1)
-1174.18680987952

>  <r_j_Total_Free_Energy_(au)_298.15K_1.00E+00atm> (1)
-1174.26762222829

>  <r_lp_tautomer_probability> (1)
1

>  <r_epik_Ionization_Penalty> (1)
  0.0000

>  <r_epik_Ionization_Penalty_Charging> (1)
  0.0000

>  <r_epik_Ionization_Penalty_Neutral> (1)
  0.0000

>  <r_epik_State_Penalty> (1)
  0.0000

>  <r_epik_Charging_Adjusted_Penalty> (1)
0

>  <i_epik_Tot_Q> (1)
0

>  <i_epik_Tot_abs_Q> (1)
0

>  <s_lp_Force_Field> (1)
S-OPLS

>  <r_lp_Energy> (1)
111.367

>  <b_lp_Chiralities_Consistent> (1)
1

$$$$
