10117_Neoabietic acid
                    3D
 Schrodinger Suite 2021-3.
 51 53  0  0  1  0            999 V2000
    0.0736    0.2204   -0.3182 C   0  0  0  0  0  0
    1.5583    0.0887   -0.0604 C   0  0  0  0  0  0
    2.1930   -1.1066    0.0384 C   0  0  0  0  0  0
    3.6868   -1.2646    0.2522 C   0  0  0  0  0  0
    4.2501   -2.3411   -0.6878 C   0  0  0  0  0  0
    3.5973   -3.7151   -0.4504 C   0  0  1  0  0  0
    2.1218   -3.5900   -0.1341 C   0  0  0  0  0  0
    1.5006   -2.3989    0.0051 C   0  0  0  0  0  0
    1.3907   -4.8864    0.0900 C   0  0  0  0  0  0
    1.7119   -5.9931   -0.9337 C   0  0  0  0  0  0
    3.2185   -6.1307   -1.2648 C   0  0  1  0  0  0
    3.8119   -4.7264   -1.6361 C   0  0  2  0  0  0
    5.3100   -4.8819   -1.9834 C   0  0  0  0  0  0
    6.1197   -5.5892   -0.8975 C   0  0  0  0  0  0
    5.5407   -6.9803   -0.6335 C   0  0  0  0  0  0
    4.0440   -6.9950   -0.2374 C   0  0  2  0  0  0
    3.5612   -8.4569   -0.3383 C   0  0  0  0  0  0
    3.8502   -6.5356    1.2760 C   0  0  0  0  0  0
    2.8170   -6.9752    1.8437 O   0  0  0  0  0  0
    4.7278   -5.7700    1.7565 O   0  5  0  0  0  0
    3.1024   -4.2019   -2.9094 C   0  0  0  0  0  0
    2.2325    1.4324    0.0883 C   0  0  0  0  0  0
   -0.1102    0.9288   -1.1393 H   0  0  0  0  0  0
   -0.4522    0.6284    0.5587 H   0  0  0  0  0  0
   -0.4054   -0.7210   -0.5892 H   0  0  0  0  0  0
    4.2313   -0.3286    0.1008 H   0  0  0  0  0  0
    3.8640   -1.5773    1.2910 H   0  0  0  0  0  0
    4.0897   -2.0063   -1.7201 H   0  0  0  0  0  0
    5.3332   -2.4196   -0.5434 H   0  0  0  0  0  0
    4.0650   -4.1674    0.4350 H   0  0  0  0  0  0
    0.4313   -2.4110    0.2041 H   0  0  0  0  0  0
    1.6858   -5.2727    1.0735 H   0  0  0  0  0  0
    0.3074   -4.7087    0.1241 H   0  0  0  0  0  0
    1.3280   -6.9380   -0.5429 H   0  0  0  0  0  0
    1.1684   -5.7904   -1.8661 H   0  0  0  0  0  0
    3.2756   -6.7087   -2.2034 H   0  0  0  0  0  0
    5.3732   -5.4704   -2.9131 H   0  0  0  0  0  0
    5.7401   -3.9007   -2.2225 H   0  0  0  0  0  0
    7.1703   -5.6688   -1.2138 H   0  0  0  0  0  0
    6.0919   -5.0325    0.0421 H   0  0  0  0  0  0
    5.6693   -7.5876   -1.5464 H   0  0  0  0  0  0
    6.1085   -7.4733    0.1633 H   0  0  0  0  0  0
    3.5760   -8.8185   -1.3774 H   0  0  0  0  0  0
    2.5590   -8.5634    0.0771 H   0  0  0  0  0  0
    4.2184   -9.1068    0.2524 H   0  0  0  0  0  0
    3.0624   -4.9851   -3.6758 H   0  0  0  0  0  0
    3.6430   -3.3528   -3.3415 H   0  0  0  0  0  0
    2.0815   -3.8676   -2.7088 H   0  0  0  0  0  0
    1.7338    2.0290    0.8672 H   0  0  0  0  0  0
    2.1546    2.0209   -0.8387 H   0  0  0  0  0  0
    3.2885    1.3691    0.3540 H   0  0  0  0  0  0
  1  2  1  0  0  0
  1 23  1  0  0  0
  1 24  1  0  0  0
  1 25  1  0  0  0
  2  3  2  3  0  0
  2 22  1  0  0  0
  3  8  1  0  0  0
  3  4  1  0  0  0
  4  5  1  0  0  0
  4 26  1  0  0  0
  4 27  1  0  0  0
  5  6  1  0  0  0
  5 28  1  0  0  0
  5 29  1  0  0  0
  6 12  1  0  0  0
  6  7  1  0  0  0
  6 30  1  0  0  0
  7  8  2  0  0  0
  7  9  1  0  0  0
  8 31  1  0  0  0
  9 10  1  0  0  0
  9 32  1  0  0  0
  9 33  1  0  0  0
 10 11  1  0  0  0
 10 34  1  0  0  0
 10 35  1  0  0  0
 11 16  1  0  0  0
 11 12  1  0  0  0
 11 36  1  0  0  0
 12 13  1  0  0  0
 12 21  1  0  0  0
 13 14  1  0  0  0
 13 37  1  0  0  0
 13 38  1  0  0  0
 14 15  1  0  0  0
 14 39  1  0  0  0
 14 40  1  0  0  0
 15 16  1  0  0  0
 15 41  1  0  0  0
 15 42  1  0  0  0
 16 17  1  0  0  0
 16 18  1  0  0  0
 17 43  1  0  0  0
 17 44  1  0  0  0
 17 45  1  0  0  0
 18 19  2  0  0  0
 18 20  1  0  0  0
 21 46  1  0  0  0
 21 47  1  0  0  0
 21 48  1  0  0  0
 22 49  1  0  0  0
 22 50  1  0  0  0
 22 51  1  0  0  0
M  CHG  1  20  -1
M  END
> <i_m_Spin_multiplicity>
1

> <s_j_Task>
Single Point

> <s_j_QM_Method>
DFT(b3lyp-d3)

> <s_j_QM_Basis>
cc-pvtz(-f)

> <i_j_Number_of_canonical_orbitals>
752

> <i_j_Geometry_convergence_category>
1

> <r_j_Gas_Phase_Energy>
-930.46634244873

> <r_j_Final_Energy>
-930.46634244873

> <r_j_HOMO>
-0.0997601030152431

> <r_j_LUMO>
0.076451250277669

> <r_j_Polarizability>
248.647177284791

> <r_j_QM_Dipole_(debye)>
9.28053514502569

> <r_j_QM_Dipole_X_(debye)>
-1.30269376437382

> <r_j_QM_Dipole_Y_(debye)>
6.52835384824412

> <r_j_QM_Dipole_Z_(debye)>
-6.46621354166677

> <r_j_Lowest_Frequency_(cm-1)>
48.7587857490915

> <r_j_Highest_Frequency_(cm-1)>
3101.69686496358

> <r_j_2nd_Lowest_Frequency_(cm-1)>
73.8808575132275

> <i_j_Num_Negative_Frequencies>
0

> <r_j_Zero_Point_Energy_(kcal/mol)>
282.376647168321

> <r_j_Entropy_(cal/mol/K)_298.15K_1.00E+00atm>
138.672375507024

> <r_j_Enthalpy_(kcal/mol)_298.15K_1.00E+00atm>
13.2089307033971

> <r_j_Free_Energy_(kcal/mol)_298.15K_1.00E+00atm>
-28.1362380540221

> <r_j_Internal_Energy_(kcal/mol)_298.15K_1.00E+00atm>
12.6164451145699

> <r_j_Heat_Capacity_(cal/mol/K)_298.15K_1.00E+00atm>
85.086550278836

> <r_j_ln(Q)_298.15K_1.00E+00atm>
47.488476655969

> <r_j_Total_Internal_Energy_(au)_298.15K_1.00E+00atm>
-929.99624102973

> <r_j_Total_Enthalpy_(au)_298.15K_1.00E+00atm>
-929.995296843838

> <r_j_Total_Free_Energy_(au)_298.15K_1.00E+00atm>
-930.061184564635

> <r_epik_Ionization_Penalty>
  0.0050

> <r_epik_Ionization_Penalty_Charging>
  0.0050

> <r_epik_Ionization_Penalty_Neutral>
  0.0000

> <r_epik_State_Penalty>
  0.0036

> <r_epik_Charging_Adjusted_Penalty>
0.00855150536174729

> <i_epik_Tot_Q>
-1

> <i_epik_Tot_abs_Q>
1

> <s_lp_Force_Field>
S-OPLS

> <r_lp_Energy>
41.977538

> <b_lp_Chiralities_Consistent>
1

$$$$
