10116_Pimaric acid
                    3D
 Schrodinger Suite 2021-3.
 51 53  0  0  1  0            999 V2000
   -0.0169   -0.2066   -0.0797 C   0  0  0  0  0  0
    1.5292   -0.0988   -0.0600 C   0  0  0  0  0  0
    2.1828   -1.5060    0.0189 C   0  0  0  0  0  0
    2.0007   -2.1510    1.3954 C   0  0  0  0  0  0
    2.6182   -1.2988    2.5241 C   0  0  0  0  0  0
    2.4989    0.1921    2.2643 C   0  0  0  0  0  0
    1.9794    0.7065    1.1401 C   0  0  0  0  0  0
    3.0829    1.0800    3.3352 C   0  0  0  0  0  0
    2.7130    0.6806    4.7762 C   0  0  0  0  0  0
    2.8111   -0.8396    5.0562 C   0  0  0  0  0  0
    2.0376   -1.6373    3.9468 C   0  0  0  0  0  0
    2.1293   -3.1500    4.2516 C   0  0  0  0  0  0
    3.5608   -3.6505    4.4406 C   0  0  0  0  0  0
    4.2350   -2.8909    5.5843 C   0  0  0  0  0  0
    4.2580   -1.3524    5.4142 C   0  0  0  0  0  0
    4.6611   -0.7501    6.7763 C   0  0  0  0  0  0
    5.3654   -0.9134    4.3565 C   0  0  0  0  0  0
    5.8168    0.2516    4.5015 O   0  0  0  0  0  0
    5.6737   -1.7556    3.4714 O   0  5  0  0  0  0
    0.5386   -1.2512    4.0068 C   0  0  0  0  0  0
    1.9658    0.5375   -1.3692 C   0  0  0  0  0  0
    2.8842    1.4896   -1.5384 C   0  0  0  0  0  0
   -0.4694    0.7901   -0.1283 H   0  0  0  0  0  0
   -0.3842   -0.6939    0.8269 H   0  0  0  0  0  0
   -0.3671   -0.7808   -0.9484 H   0  0  0  0  0  0
    1.7718   -2.1524   -0.7696 H   0  0  0  0  0  0
    3.2533   -1.3903   -0.1843 H   0  0  0  0  0  0
    0.9323   -2.3213    1.5711 H   0  0  0  0  0  0
    2.4694   -3.1414    1.3931 H   0  0  0  0  0  0
    3.6928   -1.5190    2.5654 H   0  0  0  0  0  0
    1.8933    1.7896    1.0482 H   0  0  0  0  0  0
    4.1750    1.0225    3.2609 H   0  0  0  0  0  0
    2.8001    2.1253    3.1518 H   0  0  0  0  0  0
    3.3674    1.2279    5.4583 H   0  0  0  0  0  0
    1.6868    1.0081    4.9899 H   0  0  0  0  0  0
    2.2311   -1.0212    5.9775 H   0  0  0  0  0  0
    1.5646   -3.3345    5.1799 H   0  0  0  0  0  0
    1.6114   -3.7201    3.4696 H   0  0  0  0  0  0
    3.5489   -4.7292    4.6562 H   0  0  0  0  0  0
    4.1571   -3.4932    3.5389 H   0  0  0  0  0  0
    3.7052   -3.1344    6.5219 H   0  0  0  0  0  0
    5.2686   -3.2359    5.6998 H   0  0  0  0  0  0
    3.8923   -0.9281    7.5430 H   0  0  0  0  0  0
    4.8536    0.3190    6.6849 H   0  0  0  0  0  0
    5.5941   -1.2104    7.1242 H   0  0  0  0  0  0
    0.1701   -1.3031    5.0383 H   0  0  0  0  0  0
   -0.0716   -1.9393    3.4108 H   0  0  0  0  0  0
    0.3533   -0.2425    3.6290 H   0  0  0  0  0  0
    1.4766    0.1219   -2.2540 H   0  0  0  0  0  0
    3.4200    1.9233   -0.6997 H   0  0  0  0  0  0
    3.1445    1.8517   -2.5298 H   0  0  0  0  0  0
  1  2  1  0  0  0
  1 23  1  0  0  0
  1 24  1  0  0  0
  1 25  1  0  0  0
  2  7  1  0  0  0
  2  3  1  0  0  0
  2 21  1  0  0  0
  3  4  1  0  0  0
  3 26  1  0  0  0
  3 27  1  0  0  0
  4  5  1  0  0  0
  4 28  1  0  0  0
  4 29  1  0  0  0
  5 11  1  0  0  0
  5  6  1  0  0  0
  5 30  1  0  0  0
  6  7  2  0  0  0
  6  8  1  0  0  0
  7 31  1  0  0  0
  8  9  1  0  0  0
  8 32  1  0  0  0
  8 33  1  0  0  0
  9 10  1  0  0  0
  9 34  1  0  0  0
  9 35  1  0  0  0
 10 15  1  0  0  0
 10 11  1  0  0  0
 10 36  1  0  0  0
 11 12  1  0  0  0
 11 20  1  0  0  0
 12 13  1  0  0  0
 12 37  1  0  0  0
 12 38  1  0  0  0
 13 14  1  0  0  0
 13 39  1  0  0  0
 13 40  1  0  0  0
 14 15  1  0  0  0
 14 41  1  0  0  0
 14 42  1  0  0  0
 15 16  1  0  0  0
 15 17  1  0  0  0
 16 43  1  0  0  0
 16 44  1  0  0  0
 16 45  1  0  0  0
 17 18  2  0  0  0
 17 19  1  0  0  0
 20 46  1  0  0  0
 20 47  1  0  0  0
 20 48  1  0  0  0
 21 22  2  0  0  0
 21 49  1  0  0  0
 22 50  1  0  0  0
 22 51  1  0  0  0
M  END
>  <i_m_Spin_multiplicity> (1)
1

>  <s_j_Task> (1)
Single Point

>  <s_j_QM_Method> (1)
DFT(b3lyp-d3)

>  <s_j_QM_Basis> (1)
cc-pvtz(-f)

>  <i_j_Number_of_canonical_orbitals> (1)
752

>  <i_j_Geometry_convergence_category> (1)
3

>  <r_j_Gas_Phase_Energy> (1)
-930.451952409537

>  <r_j_Final_Energy> (1)
-930.451952409537

>  <r_j_HOMO> (1)
-0.0914346095552148

>  <r_j_LUMO> (1)
0.0965786399153805

>  <r_j_Polarizability> (1)
234.446646162733

>  <r_j_QM_Dipole_(debye)> (1)
9.20099621223749

>  <r_j_QM_Dipole_X_(debye)> (1)
-8.63830191038647

>  <r_j_QM_Dipole_Y_(debye)> (1)
-0.828040215354654

>  <r_j_QM_Dipole_Z_(debye)> (1)
-3.05817278850909

>  <r_j_Lowest_Frequency_(cm-1)> (1)
50.868378400718

>  <r_j_Highest_Frequency_(cm-1)> (1)
3170.39069513824

>  <r_j_2nd_Lowest_Frequency_(cm-1)> (1)
74.6104683154535

>  <i_j_Num_Negative_Frequencies> (1)
0

>  <r_j_Zero_Point_Energy_(kcal/mol)> (1)
282.536237670172

>  <r_j_Entropy_(cal/mol/K)_298.15K_1.00E+00atm> (1)
136.912161775496

>  <r_j_Enthalpy_(kcal/mol)_298.15K_1.00E+00atm> (1)
12.9880543399006

>  <r_j_Free_Energy_(kcal/mol)_298.15K_1.00E+00atm> (1)
-27.8323066934636

>  <r_j_Internal_Energy_(kcal/mol)_298.15K_1.00E+00atm> (1)
12.3955687510733

>  <r_j_Heat_Capacity_(cal/mol/K)_298.15K_1.00E+00atm> (1)
84.7277109210155

>  <r_j_ln(Q)_298.15K_1.00E+00atm> (1)
46.9754998573939

>  <r_j_Total_Internal_Energy_(au)_298.15K_1.00E+00atm> (1)
-929.981948655775

>  <r_j_Total_Enthalpy_(au)_298.15K_1.00E+00atm> (1)
-929.981004469883

>  <r_j_Total_Free_Energy_(au)_298.15K_1.00E+00atm> (1)
-930.046055856332

>  <r_epik_Ionization_Penalty> (1)
  0.0053

>  <r_epik_Ionization_Penalty_Charging> (1)
  0.0053

>  <r_epik_Ionization_Penalty_Neutral> (1)
  0.0000

>  <r_epik_State_Penalty> (1)
  0.0038

>  <r_epik_Charging_Adjusted_Penalty> (1)
0.00912342

>  <i_epik_Tot_Q> (1)
-1

>  <i_epik_Tot_abs_Q> (1)
1

>  <s_lp_Force_Field> (1)
S-OPLS

>  <r_lp_Energy> (1)
43.218

>  <b_lp_Chiralities_Consistent> (1)
1

$$$$
