10130_Cis-pinonic acid
                    3D
 Schrodinger Suite 2021-3.
 28 28  0  0  1  0            999 V2000
   -0.6225   -1.4160    0.1010 C   0  0  0  0  0  0
   -0.0308   -0.0420   -0.1994 C   0  0  0  0  0  0
   -0.7586    0.9116   -0.4267 O   0  0  0  0  0  0
    1.4675    0.0610   -0.1188 C   0  0  0  0  0  0
    2.1885    1.3537   -0.5573 C   0  0  0  0  0  0
    3.1300    1.2165    0.6618 C   0  0  0  0  0  0
    2.0829    0.2605    1.3366 C   0  0  0  0  0  0
    1.1244    0.9885    2.2843 C   0  0  0  0  0  0
    2.6463   -0.9916    2.0013 C   0  0  0  0  0  0
    3.6431    2.4683    1.3436 C   0  0  0  0  0  0
    4.7410    3.2246    0.4827 C   0  0  0  0  0  0
    5.0281    4.3684    0.9026 O   0  0  0  0  0  0
    5.1972    2.5809   -0.4983 O   0  5  0  0  0  0
   -0.2796   -2.1499   -0.6380 H   0  0  0  0  0  0
   -1.7132   -1.3636    0.0927 H   0  0  0  0  0  0
   -0.2740   -1.7652    1.0801 H   0  0  0  0  0  0
    1.9188   -0.8358   -0.5631 H   0  0  0  0  0  0
    2.6664    1.3671   -1.5380 H   0  0  0  0  0  0
    1.5178    2.2149   -0.4762 H   0  0  0  0  0  0
    4.0037    0.6326    0.3508 H   0  0  0  0  0  0
    1.6712    1.3441    3.1636 H   0  0  0  0  0  0
    0.3182    0.3257    2.6274 H   0  0  0  0  0  0
    0.6626    1.8559    1.8061 H   0  0  0  0  0  0
    3.2260   -0.7183    2.8918 H   0  0  0  0  0  0
    3.3159   -1.5303    1.3218 H   0  0  0  0  0  0
    1.8546   -1.6836    2.3224 H   0  0  0  0  0  0
    2.8308    3.1740    1.5596 H   0  0  0  0  0  0
    4.0997    2.2187    2.3142 H   0  0  0  0  0  0
  1  2  1  0  0  0
  1 14  1  0  0  0
  1 15  1  0  0  0
  1 16  1  0  0  0
  2  3  2  0  0  0
  2  4  1  0  0  0
  4  7  1  0  0  0
  4  5  1  0  0  0
  4 17  1  0  0  0
  5  6  1  0  0  0
  5 18  1  0  0  0
  5 19  1  0  0  0
  6  7  1  0  0  0
  6 10  1  0  0  0
  6 20  1  0  0  0
  7  8  1  0  0  0
  7  9  1  0  0  0
  8 21  1  0  0  0
  8 22  1  0  0  0
  8 23  1  0  0  0
  9 24  1  0  0  0
  9 25  1  0  0  0
  9 26  1  0  0  0
 10 11  1  0  0  0
 10 27  1  0  0  0
 10 28  1  0  0  0
 11 12  2  0  0  0
 11 13  1  0  0  0
M  END
>  <i_m_Spin_multiplicity> (1)
1

>  <s_j_Task> (1)
Single Point

>  <s_j_QM_Method> (1)
DFT(b3lyp-d3)

>  <s_j_QM_Basis> (1)
cc-pvtz(-f)

>  <i_j_Number_of_canonical_orbitals> (1)
430

>  <i_j_Geometry_convergence_category> (1)
3

>  <r_j_Gas_Phase_Energy> (1)
-616.050966224592

>  <r_j_Final_Energy> (1)
-616.050966224592

>  <r_j_HOMO> (1)
-0.02780605935813

>  <r_j_LUMO> (1)
0.0714078425966116

>  <r_j_Polarizability> (1)
129.909906757615

>  <r_j_QM_Dipole_(debye)> (1)
14.2192478332318

>  <r_j_QM_Dipole_X_(debye)> (1)
-8.95304275844807

>  <r_j_QM_Dipole_Y_(debye)> (1)
-10.8124633391417

>  <r_j_QM_Dipole_Z_(debye)> (1)
2.26288993280392

>  <r_j_Lowest_Frequency_(cm-1)> (1)
64.9886151348952

>  <r_j_Highest_Frequency_(cm-1)> (1)
3084.03196251661

>  <r_j_2nd_Lowest_Frequency_(cm-1)> (1)
74.988111824048

>  <i_j_Num_Negative_Frequencies> (1)
0

>  <r_j_Zero_Point_Energy_(kcal/mol)> (1)
146.124290823425

>  <r_j_Entropy_(cal/mol/K)_298.15K_1.00E+00atm> (1)
112.089413111411

>  <r_j_Enthalpy_(kcal/mol)_298.15K_1.00E+00atm> (1)
8.96230077113834

>  <r_j_Free_Energy_(kcal/mol)_298.15K_1.00E+00atm> (1)
-24.4571577480288

>  <r_j_Internal_Energy_(kcal/mol)_298.15K_1.00E+00atm> (1)
8.36981518231106

>  <r_j_Heat_Capacity_(cal/mol/K)_298.15K_1.00E+00atm> (1)
51.2303362231788

>  <r_j_ln(Q)_298.15K_1.00E+00atm> (1)
41.2789073847984

>  <r_j_Total_Internal_Energy_(au)_298.15K_1.00E+00atm> (1)
-615.80476419356

>  <r_j_Total_Enthalpy_(au)_298.15K_1.00E+00atm> (1)
-615.803820007667

>  <r_j_Total_Free_Energy_(au)_298.15K_1.00E+00atm> (1)
-615.857077305154

>  <r_lp_tautomer_probability> (1)
1

>  <r_epik_Ionization_Penalty> (1)
  0.0043

>  <r_epik_Ionization_Penalty_Charging> (1)
  0.0043

>  <r_epik_Ionization_Penalty_Neutral> (1)
  0.0000

>  <r_epik_State_Penalty> (1)
  0.0031

>  <r_epik_Charging_Adjusted_Penalty> (1)
0.00742643

>  <i_epik_Tot_Q> (1)
-1

>  <i_epik_Tot_abs_Q> (1)
1

>  <s_lp_Force_Field> (1)
S-OPLS

>  <r_lp_Energy> (1)
10.0498

>  <b_lp_Chiralities_Consistent> (1)
1

$$$$
