101602_Dihydroabietyl Alcohol
                    3D
 Schrodinger Suite 2021-3.
 55 57  0  0  1  0            999 V2000
   -0.5405   -0.6035    1.5597 C   0  0  0  0  0  0
   -0.0620    0.0205    0.2416 C   0  0  0  0  0  0
   -0.8769   -0.5169   -0.9449 C   0  0  0  0  0  0
    1.4722   -0.1295    0.0474 C   0  0  0  0  0  0
    1.9640   -1.5790   -0.0981 C   0  0  0  0  0  0
    3.4710   -1.6024   -0.3737 C   0  0  0  0  0  0
    3.8382   -0.8845   -1.6917 C   0  0  0  0  0  0
    2.9527    0.3223   -1.9544 C   0  0  0  0  0  0
    1.9472    0.6727   -1.1422 C   0  0  0  0  0  0
    3.2530    1.0794   -3.2232 C   0  0  0  0  0  0
    4.7449    1.3928   -3.4313 C   0  0  0  0  0  0
    5.6900    0.1929   -3.1769 C   0  0  0  0  0  0
    5.3552   -0.4736   -1.7867 C   0  0  0  0  0  0
    6.2802   -1.6896   -1.5524 C   0  0  0  0  0  0
    6.3084   -2.6750   -2.7209 C   0  0  0  0  0  0
    6.8099   -1.9544   -3.9739 C   0  0  0  0  0  0
    5.9270   -0.7578   -4.4162 C   0  0  0  0  0  0
    6.7221    0.0151   -5.4939 C   0  0  0  0  0  0
    4.6677   -1.3318   -5.1042 C   0  0  0  0  0  0
    4.0109   -0.3208   -5.8723 O   0  0  0  0  0  0
    5.6718    0.5579   -0.6744 C   0  0  0  0  0  0
   -0.4324   -1.6937    1.5481 H   0  0  0  0  0  0
   -1.5991   -0.3826    1.7348 H   0  0  0  0  0  0
    0.0284   -0.2199    2.4143 H   0  0  0  0  0  0
   -0.2507    1.1030    0.3043 H   0  0  0  0  0  0
   -0.8121   -1.6085   -1.0107 H   0  0  0  0  0  0
   -0.5225   -0.1035   -1.8944 H   0  0  0  0  0  0
   -1.9358   -0.2589   -0.8357 H   0  0  0  0  0  0
    1.9337    0.2845    0.9601 H   0  0  0  0  0  0
    1.7429   -2.1586    0.8050 H   0  0  0  0  0  0
    1.4350   -2.0628   -0.9286 H   0  0  0  0  0  0
    3.9796   -1.1256    0.4713 H   0  0  0  0  0  0
    3.8276   -2.6376   -0.4061 H   0  0  0  0  0  0
    3.6457   -1.5979   -2.5039 H   0  0  0  0  0  0
    1.3806    1.5750   -1.3772 H   0  0  0  0  0  0
    2.9155    0.4782   -4.0743 H   0  0  0  0  0  0
    2.6726    2.0090   -3.2537 H   0  0  0  0  0  0
    4.8854    1.7802   -4.4430 H   0  0  0  0  0  0
    5.0310    2.2012   -2.7490 H   0  0  0  0  0  0
    6.6902    0.6236   -3.0246 H   0  0  0  0  0  0
    7.3019   -1.3121   -1.4013 H   0  0  0  0  0  0
    6.0076   -2.1923   -0.6189 H   0  0  0  0  0  0
    6.9698   -3.5175   -2.4860 H   0  0  0  0  0  0
    5.3132   -3.1066   -2.8887 H   0  0  0  0  0  0
    7.8183   -1.5725   -3.7626 H   0  0  0  0  0  0
    6.9214   -2.6525   -4.8133 H   0  0  0  0  0  0
    6.9698   -0.6487   -6.3306 H   0  0  0  0  0  0
    7.6614    0.3961   -5.0791 H   0  0  0  0  0  0
    6.1561    0.8530   -5.9018 H   0  0  0  0  0  0
    4.9920   -2.1483   -5.7693 H   0  0  0  0  0  0
    3.9805   -1.7678   -4.3691 H   0  0  0  0  0  0
    3.2331   -0.7191   -6.2819 H   0  0  0  0  0  0
    6.6501    1.0197   -0.8458 H   0  0  0  0  0  0
    5.7111    0.0780    0.3077 H   0  0  0  0  0  0
    4.9237    1.3520   -0.6196 H   0  0  0  0  0  0
  1  2  1  0  0  0
  1 22  1  0  0  0
  1 23  1  0  0  0
  1 24  1  0  0  0
  2  3  1  0  0  0
  2  4  1  0  0  0
  2 25  1  0  0  0
  3 26  1  0  0  0
  3 27  1  0  0  0
  3 28  1  0  0  0
  4  9  1  0  0  0
  4  5  1  0  0  0
  4 29  1  0  0  0
  5  6  1  0  0  0
  5 30  1  0  0  0
  5 31  1  0  0  0
  6  7  1  0  0  0
  6 32  1  0  0  0
  6 33  1  0  0  0
  7 13  1  0  0  0
  7  8  1  0  0  0
  7 34  1  0  0  0
  8  9  2  0  0  0
  8 10  1  0  0  0
  9 35  1  0  0  0
 10 11  1  0  0  0
 10 36  1  0  0  0
 10 37  1  0  0  0
 11 12  1  0  0  0
 11 38  1  0  0  0
 11 39  1  0  0  0
 12 17  1  0  0  0
 12 13  1  0  0  0
 12 40  1  0  0  0
 13 14  1  0  0  0
 13 21  1  0  0  0
 14 15  1  0  0  0
 14 41  1  0  0  0
 14 42  1  0  0  0
 15 16  1  0  0  0
 15 43  1  0  0  0
 15 44  1  0  0  0
 16 17  1  0  0  0
 16 45  1  0  0  0
 16 46  1  0  0  0
 17 18  1  0  0  0
 17 19  1  0  0  0
 18 47  1  0  0  0
 18 48  1  0  0  0
 18 49  1  0  0  0
 19 20  1  0  0  0
 19 50  1  0  0  0
 19 51  1  0  0  0
 20 52  1  0  0  0
 21 53  1  0  0  0
 21 54  1  0  0  0
 21 55  1  0  0  0
M  END
>  <i_m_Spin_multiplicity> (1)
1

>  <s_j_Task> (1)
Single Point

>  <s_j_QM_Method> (1)
DFT(b3lyp-d3)

>  <s_j_QM_Basis> (1)
cc-pvtz(-f)

>  <i_j_Number_of_canonical_orbitals> (1)
776

>  <i_j_Geometry_convergence_category> (1)
3

>  <r_j_Gas_Phase_Energy> (1)
-858.167930249785

>  <r_j_Final_Energy> (1)
-858.167930249785

>  <r_j_HOMO> (1)
-0.215469926743154

>  <r_j_LUMO> (1)
0.0192294321226492

>  <r_j_Polarizability> (1)
230.308792687637

>  <r_j_QM_Dipole_(debye)> (1)
1.49688696209477

>  <r_j_QM_Dipole_X_(debye)> (1)
-0.121399567431697

>  <r_j_QM_Dipole_Y_(debye)> (1)
-1.42590814153765

>  <r_j_QM_Dipole_Z_(debye)> (1)
-0.438997373811457

>  <r_j_Lowest_Frequency_(cm-1)> (1)
47.0229487299108

>  <r_j_Highest_Frequency_(cm-1)> (1)
3776.5662034319

>  <r_j_2nd_Lowest_Frequency_(cm-1)> (1)
85.5567956756905

>  <i_j_Num_Negative_Frequencies> (1)
0

>  <r_j_Zero_Point_Energy_(kcal/mol)> (1)
317.996194741319

>  <r_j_Entropy_(cal/mol/K)_298.15K_1.00E+00atm> (1)
137.514295707067

>  <r_j_Enthalpy_(kcal/mol)_298.15K_1.00E+00atm> (1)
13.1561905416105

>  <r_j_Free_Energy_(kcal/mol)_298.15K_1.00E+00atm> (1)
-27.8436967234514

>  <r_j_Internal_Energy_(kcal/mol)_298.15K_1.00E+00atm> (1)
12.5637049527833

>  <r_j_Heat_Capacity_(cal/mol/K)_298.15K_1.00E+00atm> (1)
86.3118911529485

>  <r_j_ln(Q)_298.15K_1.00E+00atm> (1)
46.9947240042805

>  <r_j_Total_Internal_Energy_(au)_298.15K_1.00E+00atm> (1)
-857.641149514996

>  <r_j_Total_Enthalpy_(au)_298.15K_1.00E+00atm> (1)
-857.640205329103

>  <r_j_Total_Free_Energy_(au)_298.15K_1.00E+00atm> (1)
-857.705542808815

>  <r_lp_tautomer_probability> (1)
1

>  <r_epik_Ionization_Penalty> (1)
  0.0000

>  <r_epik_Ionization_Penalty_Charging> (1)
  0.0000

>  <r_epik_Ionization_Penalty_Neutral> (1)
  0.0000

>  <r_epik_State_Penalty> (1)
  0.0000

>  <r_epik_Charging_Adjusted_Penalty> (1)
0

>  <i_epik_Tot_Q> (1)
0

>  <i_epik_Tot_abs_Q> (1)
0

>  <s_lp_Force_Field> (1)
S-OPLS

>  <r_lp_Energy> (1)
42.6879

>  <b_lp_Chiralities_Consistent> (1)
1

$$$$
