1017_Phthalic acid
                    3D
 Schrodinger Suite 2021-3.
 16 16  0  0  1  0            999 V2000
   -2.7463   -0.0287    0.0015 C   0  0  0  0  0  0
   -2.0530    1.1849    0.0074 C   0  0  0  0  0  0
   -0.6565    1.1653    0.0036 C   0  0  0  0  0  0
    0.0868   -0.0275   -0.0133 C   0  0  0  0  0  0
   -0.6165   -1.2584    0.0131 C   0  0  0  0  0  0
   -2.0216   -1.2225    0.0006 C   0  0  0  0  0  0
    0.0116   -2.6728    0.1690 C   0  0  0  0  0  0
   -0.4969   -3.5702   -0.5617 O   0  0  0  0  0  0
    0.8659   -2.7843    1.0790 O   0  5  0  0  0  0
    1.6246    0.1466   -0.1724 C   0  0  0  0  0  0
    2.1558   -0.5502   -1.0681 O   0  0  0  0  0  0
    2.1393    1.0532    0.5427 O   0  5  0  0  0  0
   -3.8389   -0.0451   -0.0017 H   0  0  0  0  0  0
   -2.5937    2.1343    0.0130 H   0  0  0  0  0  0
   -0.0875    2.0928    0.0264 H   0  0  0  0  0  0
   -2.5338   -2.1827   -0.0230 H   0  0  0  0  0  0
  1  6  1  0  0  0
  1  2  2  0  0  0
  1 13  1  0  0  0
  2  3  1  0  0  0
  2 14  1  0  0  0
  3  4  2  0  0  0
  3 15  1  0  0  0
  4  5  1  0  0  0
  4 10  1  0  0  0
  5  6  2  0  0  0
  5  7  1  0  0  0
  6 16  1  0  0  0
  7  8  2  0  0  0
  7  9  1  0  0  0
 10 11  2  0  0  0
 10 12  1  0  0  0
M  END
>  <i_m_Spin_multiplicity> (1)
1

>  <s_j_Task> (1)
Single Point

>  <s_j_QM_Method> (1)
DFT(b3lyp-d3)

>  <s_j_QM_Basis> (1)
cc-pvtz(-f)

>  <i_j_Number_of_canonical_orbitals> (1)
306

>  <i_j_Geometry_convergence_category> (1)
3

>  <r_j_Gas_Phase_Energy> (1)
-608.37289228122

>  <r_j_Final_Energy> (1)
-608.37289228122

>  <r_j_HOMO> (1)
0.0833834137454975

>  <r_j_LUMO> (1)
0.249491818595161

>  <r_j_Polarizability> (1)
108.475290607292

>  <r_j_QM_Dipole_(debye)> (1)
8.95204707711267

>  <r_j_QM_Dipole_X_(debye)> (1)
-7.77088753615187

>  <r_j_QM_Dipole_Y_(debye)> (1)
4.44436079041924

>  <r_j_QM_Dipole_Z_(debye)> (1)
0.0105326115070358

>  <r_j_Lowest_Frequency_(cm-1)> (1)
77.8196626258976

>  <r_j_Highest_Frequency_(cm-1)> (1)
3105.41829406518

>  <r_j_2nd_Lowest_Frequency_(cm-1)> (1)
108.405163554777

>  <i_j_Num_Negative_Frequencies> (1)
0

>  <r_j_Zero_Point_Energy_(kcal/mol)> (1)
64.1499551411573

>  <r_j_Entropy_(cal/mol/K)_298.15K_1.00E+00atm> (1)
96.3898647572502

>  <r_j_Enthalpy_(kcal/mol)_298.15K_1.00E+00atm> (1)
6.53016140201221

>  <r_j_Free_Energy_(kcal/mol)_298.15K_1.00E+00atm> (1)
-22.2084767753619

>  <r_j_Internal_Energy_(kcal/mol)_298.15K_1.00E+00atm> (1)
5.93767581318494

>  <r_j_Heat_Capacity_(cal/mol/K)_298.15K_1.00E+00atm> (1)
34.9916172859367

>  <r_j_ln(Q)_298.15K_1.00E+00atm> (1)
37.4835729242291

>  <r_j_Total_Internal_Energy_(au)_298.15K_1.00E+00atm> (1)
-608.261200531047

>  <r_j_Total_Enthalpy_(au)_298.15K_1.00E+00atm> (1)
-608.260256345155

>  <r_j_Total_Free_Energy_(au)_298.15K_1.00E+00atm> (1)
-608.306054280567

>  <r_epik_Ionization_Penalty> (1)
  0.0135

>  <r_epik_Ionization_Penalty_Charging> (1)
  0.0135

>  <r_epik_Ionization_Penalty_Neutral> (1)
  0.0000

>  <r_epik_State_Penalty> (1)
  0.0105

>  <r_epik_Charging_Adjusted_Penalty> (1)
0.0239209

>  <i_epik_Tot_Q> (1)
-2

>  <i_epik_Tot_abs_Q> (1)
2

>  <s_lp_Force_Field> (1)
S-OPLS

>  <r_lp_Energy> (1)
60.6442

>  <b_lp_Chiralities_Consistent> (1)
1

$$$$
