1018_Picolinic acid
                    3D
 Schrodinger Suite 2021-3.
 13 13  0  0  1  0            999 V2000
   -2.0780   -1.1628    0.0000 C   0  0  0  0  0  0
   -2.7450    0.0654    0.0000 C   0  0  0  0  0  0
   -1.9657    1.2226    0.0000 C   0  0  0  0  0  0
   -0.6272    1.2379    0.0000 N   0  0  0  0  0  0
    0.0175    0.0539    0.0000 C   0  0  0  0  0  0
   -0.6887   -1.1640    0.0000 C   0  0  0  0  0  0
    1.5859    0.0105    0.0000 C   0  0  0  0  0  0
    2.0510   -1.1616    0.0000 O   0  0  0  0  0  0
    2.1687    1.1128    0.0000 O   0  5  0  0  0  0
   -2.6378   -2.0975    0.0000 H   0  0  0  0  0  0
   -3.8308    0.1279    0.0000 H   0  0  0  0  0  0
   -2.4550    2.2000    0.0000 H   0  0  0  0  0  0
   -0.0922   -2.0693    0.0000 H   0  0  0  0  0  0
  1  6  1  0  0  0
  1  2  2  0  0  0
  1 10  1  0  0  0
  2  3  1  0  0  0
  2 11  1  0  0  0
  3  4  2  0  0  0
  3 12  1  0  0  0
  4  5  1  0  0  0
  5  6  2  0  0  0
  5  7  1  0  0  0
  6 13  1  0  0  0
  7  8  2  0  0  0
  7  9  1  0  0  0
M  END
>  <i_m_Spin_multiplicity> (1)
1

>  <s_j_Task> (1)
Single Point

>  <s_j_QM_Method> (1)
DFT(b3lyp-d3)

>  <s_j_QM_Basis> (1)
cc-pvtz(-f)

>  <i_j_Number_of_canonical_orbitals> (1)
240

>  <i_j_Geometry_convergence_category> (1)
0

>  <r_j_Gas_Phase_Energy> (1)
-436.449057223989

>  <r_j_Final_Energy> (1)
-436.449057223989

>  <r_j_HOMO> (1)
-0.0424727811401886

>  <r_j_LUMO> (1)
0.101005789249316

>  <r_j_Polarizability> (1)
80.9071240364734

>  <r_j_QM_Dipole_(debye)> (1)
9.14448853816849

>  <r_j_QM_Dipole_X_(debye)> (1)
-9.03792980118604

>  <r_j_QM_Dipole_Y_(debye)> (1)
-1.39193948627839

>  <r_j_QM_Dipole_Z_(debye)> (1)
-8.19552126812546e-06

>  <r_j_Lowest_Frequency_(cm-1)> (1)
73.0952978468896

>  <r_j_Highest_Frequency_(cm-1)> (1)
3162.16758913461

>  <r_j_2nd_Lowest_Frequency_(cm-1)> (1)
160.85824190543

>  <i_j_Num_Negative_Frequencies> (1)
0

>  <r_j_Zero_Point_Energy_(kcal/mol)> (1)
55.9552271767698

>  <r_j_Entropy_(cal/mol/K)_298.15K_1.00E+00atm> (1)
82.4507240580112

>  <r_j_Enthalpy_(kcal/mol)_298.15K_1.00E+00atm> (1)
4.7975491431048

>  <r_j_Free_Energy_(kcal/mol)_298.15K_1.00E+00atm> (1)
-19.7851342347913

>  <r_j_Internal_Energy_(kcal/mol)_298.15K_1.00E+00atm> (1)
4.20506355427752

>  <r_j_Heat_Capacity_(cal/mol/K)_298.15K_1.00E+00atm> (1)
25.0791352963573

>  <r_j_ln(Q)_298.15K_1.00E+00atm> (1)
33.3934438370942

>  <r_j_Total_Internal_Energy_(au)_298.15K_1.00E+00atm> (1)
-436.353185697571

>  <r_j_Total_Enthalpy_(au)_298.15K_1.00E+00atm> (1)
-436.352241511678

>  <r_j_Total_Free_Energy_(au)_298.15K_1.00E+00atm> (1)
-436.391416511504

>  <r_epik_Ionization_Penalty> (1)
  0.0126

>  <r_epik_Ionization_Penalty_Charging> (1)
  0.0002

>  <r_epik_Ionization_Penalty_Neutral> (1)
  0.0124

>  <r_epik_State_Penalty> (1)
  0.0096

>  <r_epik_Charging_Adjusted_Penalty> (1)
0.00982003

>  <i_epik_Tot_Q> (1)
-1

>  <i_epik_Tot_abs_Q> (1)
1

>  <s_lp_Force_Field> (1)
S-OPLS

>  <r_lp_Energy> (1)
22.4677

>  <b_lp_Chiralities_Consistent> (1)
1

$$$$
