10222_Retene
                    3D
 Schrodinger Suite 2021-3.
 36 38  0  0  1  0            999 V2000
   -7.2300    2.5944    0.0001 C   0  0  0  0  0  0
   -6.4158    1.3156    0.0001 C   0  0  0  0  0  0
   -4.9884    1.2892    0.0001 C   0  0  0  0  0  0
   -4.2006    2.4935    0.0001 C   0  0  0  0  0  0
   -2.8420    2.4656    0.0000 C   0  0  0  0  0  0
   -2.1184    1.2292    0.0000 C   0  0  0  0  0  0
   -2.8440    0.0043    0.0001 C   0  0  0  0  0  0
   -4.3023    0.0314    0.0000 C   0  0  0  0  0  0
   -5.0660   -1.1561   -0.0001 C   0  0  0  0  0  0
   -6.4459   -1.1156   -0.0002 C   0  0  0  0  0  0
   -7.1130    0.1161    0.0000 C   0  0  0  0  0  0
   -2.0906   -1.1914    0.0002 C   0  0  0  0  0  0
   -0.7091   -1.1753    0.0002 C   0  0  0  0  0  0
    0.0163    0.0341   -0.0001 C   0  0  0  0  0  0
   -0.7060    1.2164   -0.0002 C   0  0  0  0  0  0
    1.5380    0.0195   -0.0001 C   0  0  0  0  0  0
    2.1113    0.6749    1.2690 C   0  0  0  0  0  0
    2.1116    0.6748   -1.2691 C   0  0  0  0  0  0
   -6.6299    3.5031    0.0003 H   0  0  0  0  0  0
   -7.8802    2.6331    0.8812 H   0  0  0  0  0  0
   -7.8800    2.6332   -0.8811 H   0  0  0  0  0  0
   -4.6998    3.4547    0.0001 H   0  0  0  0  0  0
   -2.2771    3.3938   -0.0001 H   0  0  0  0  0  0
   -4.5726   -2.1203   -0.0003 H   0  0  0  0  0  0
   -7.0163   -2.0400   -0.0003 H   0  0  0  0  0  0
   -8.2002    0.1369   -0.0001 H   0  0  0  0  0  0
   -2.5920   -2.1521    0.0003 H   0  0  0  0  0  0
   -0.1658   -2.1171    0.0002 H   0  0  0  0  0  0
   -0.1855    2.1713   -0.0003 H   0  0  0  0  0  0
    1.8524   -1.0327   -0.0001 H   0  0  0  0  0  0
    1.7250    0.1915    2.1715 H   0  0  0  0  0  0
    1.8435    1.7360    1.3179 H   0  0  0  0  0  0
    3.2046    0.6050    1.2821 H   0  0  0  0  0  0
    1.7252    0.1916   -2.1716 H   0  0  0  0  0  0
    3.2048    0.6046   -1.2820 H   0  0  0  0  0  0
    1.8441    1.7361   -1.3180 H   0  0  0  0  0  0
  1  2  1  0  0  0
  1 19  1  0  0  0
  1 20  1  0  0  0
  1 21  1  0  0  0
  2 11  1  0  0  0
  2  3  2  0  0  0
  3  8  1  0  0  0
  3  4  1  0  0  0
  4  5  2  0  0  0
  4 22  1  0  0  0
  5  6  1  0  0  0
  5 23  1  0  0  0
  6 15  1  0  0  0
  6  7  2  0  0  0
  7  8  1  0  0  0
  7 12  1  0  0  0
  8  9  2  0  0  0
  9 10  1  0  0  0
  9 24  1  0  0  0
 10 11  2  0  0  0
 10 25  1  0  0  0
 11 26  1  0  0  0
 12 13  2  0  0  0
 12 27  1  0  0  0
 13 14  1  0  0  0
 13 28  1  0  0  0
 14 15  2  0  0  0
 14 16  1  0  0  0
 15 29  1  0  0  0
 16 17  1  0  0  0
 16 18  1  0  0  0
 16 30  1  0  0  0
 17 31  1  0  0  0
 17 32  1  0  0  0
 17 33  1  0  0  0
 18 34  1  0  0  0
 18 35  1  0  0  0
 18 36  1  0  0  0
M  END
>  <i_m_Spin_multiplicity> (1)
1

>  <s_j_Task> (1)
Single Point

>  <s_j_QM_Method> (1)
DFT(b3lyp-d3)

>  <s_j_QM_Basis> (1)
cc-pvtz(-f)

>  <i_j_Number_of_canonical_orbitals> (1)
560

>  <i_j_Geometry_convergence_category> (1)
0

>  <r_j_Gas_Phase_Energy> (1)
-697.036882795639

>  <r_j_Final_Energy> (1)
-697.036882795639

>  <r_j_HOMO> (1)
-0.210833086319319

>  <r_j_LUMO> (1)
-0.0423153424159872

>  <r_j_Polarizability> (1)
221.937172299339

>  <r_j_QM_Dipole_(debye)> (1)
0.230778929865058

>  <r_j_QM_Dipole_X_(debye)> (1)
0.142998845076199

>  <r_j_QM_Dipole_Y_(debye)> (1)
0.181135732406446

>  <r_j_QM_Dipole_Z_(debye)> (1)
-0.000302029989853326

>  <r_j_Lowest_Frequency_(cm-1)> (1)
44.212599859775

>  <r_j_Highest_Frequency_(cm-1)> (1)
3169.59793072813

>  <r_j_2nd_Lowest_Frequency_(cm-1)> (1)
70.744715769916

>  <i_j_Num_Negative_Frequencies> (1)
0

>  <r_j_Zero_Point_Energy_(kcal/mol)> (1)
191.507289977461

>  <r_j_Entropy_(cal/mol/K)_298.15K_1.00E+00atm> (1)
119.470908325794

>  <r_j_Enthalpy_(kcal/mol)_298.15K_1.00E+00atm> (1)
9.99349246082171

>  <r_j_Free_Energy_(kcal/mol)_298.15K_1.00E+00atm> (1)
-25.6267588565137

>  <r_j_Internal_Energy_(kcal/mol)_298.15K_1.00E+00atm> (1)
9.40100687199444

>  <r_j_Heat_Capacity_(cal/mol/K)_298.15K_1.00E+00atm> (1)
61.955385812286

>  <r_j_ln(Q)_298.15K_1.00E+00atm> (1)
43.2529657088159

>  <r_j_Total_Internal_Energy_(au)_298.15K_1.00E+00atm> (1)
-696.716715042872

>  <r_j_Total_Enthalpy_(au)_298.15K_1.00E+00atm> (1)
-696.71577085698

>  <r_j_Total_Free_Energy_(au)_298.15K_1.00E+00atm> (1)
-696.772535341056

>  <r_lp_tautomer_probability> (1)
1

>  <r_epik_Ionization_Penalty> (1)
  0.0000

>  <r_epik_Ionization_Penalty_Charging> (1)
  0.0000

>  <r_epik_Ionization_Penalty_Neutral> (1)
  0.0000

>  <r_epik_State_Penalty> (1)
  0.0000

>  <r_epik_Charging_Adjusted_Penalty> (1)
0

>  <i_epik_Tot_Q> (1)
0

>  <i_epik_Tot_abs_Q> (1)
0

>  <s_lp_Force_Field> (1)
S-OPLS

>  <r_lp_Energy> (1)
36.3459

>  <b_lp_Chiralities_Consistent> (1)
1

$$$$
