10249_Beta-Nicotyrine
                    3D
 Schrodinger Suite 2021-3.
 22 23  0  0  1  0            999 V2000
   -0.0199    0.1883   -0.0561 C   0  0  0  0  0  0
    1.4243    0.0531    0.0275 N   0  0  0  0  0  0
    2.2923    1.1191    0.0295 C   0  0  0  0  0  0
    3.5847    0.6399    0.0398 C   0  0  0  0  0  0
    3.5019   -0.7736    0.0350 C   0  0  0  0  0  0
    2.1595   -1.1257    0.0324 C   0  0  0  0  0  0
    1.5776   -2.4681    0.0208 C   0  0  0  0  0  0
    2.1841   -3.4769   -0.7555 C   0  0  0  0  0  0
    1.7706   -4.7434   -0.8105 N   0  0  0  0  0  0
    0.6890   -5.0708   -0.0897 C   0  0  0  0  0  0
   -0.0011   -4.1594    0.7088 C   0  0  0  0  0  0
    0.4547   -2.8455    0.7738 C   0  0  0  0  0  0
   -0.2610    1.1308   -0.5522 H   0  0  0  0  0  0
   -0.4898    0.1856    0.9341 H   0  0  0  0  0  0
   -0.4396   -0.6298   -0.6444 H   0  0  0  0  0  0
    1.9143    2.1309    0.0157 H   0  0  0  0  0  0
    4.4832    1.2399    0.0519 H   0  0  0  0  0  0
    4.3214   -1.4772    0.0641 H   0  0  0  0  0  0
    3.0480   -3.2232   -1.3667 H   0  0  0  0  0  0
    0.3627   -6.1068   -0.1547 H   0  0  0  0  0  0
   -0.8663   -4.4775    1.2824 H   0  0  0  0  0  0
   -0.0376   -2.1286    1.4226 H   0  0  0  0  0  0
  1  2  1  0  0  0
  1 13  1  0  0  0
  1 14  1  0  0  0
  1 15  1  0  0  0
  2  6  1  0  0  0
  2  3  1  0  0  0
  3  4  2  0  0  0
  3 16  1  0  0  0
  4  5  1  0  0  0
  4 17  1  0  0  0
  5  6  2  0  0  0
  5 18  1  0  0  0
  6  7  1  0  0  0
  7 12  1  0  0  0
  7  8  2  0  0  0
  8  9  1  0  0  0
  8 19  1  0  0  0
  9 10  2  0  0  0
 10 11  1  0  0  0
 10 20  1  0  0  0
 11 12  2  0  0  0
 11 21  1  0  0  0
 12 22  1  0  0  0
M  END
>  <i_m_Spin_multiplicity> (1)
1

>  <s_j_Task> (1)
Single Point

>  <s_j_QM_Method> (1)
DFT(b3lyp-d3)

>  <s_j_QM_Basis> (1)
cc-pvtz(-f)

>  <i_j_Number_of_canonical_orbitals> (1)
359

>  <i_j_Geometry_convergence_category> (1)
0

>  <r_j_Gas_Phase_Energy> (1)
-496.741882898987

>  <r_j_Final_Energy> (1)
-496.741882898987

>  <r_j_HOMO> (1)
-0.216272231925949

>  <r_j_LUMO> (1)
-0.0551427738245287

>  <r_j_Polarizability> (1)
128.936651522439

>  <r_j_QM_Dipole_(debye)> (1)
3.62311704744177

>  <r_j_QM_Dipole_X_(debye)> (1)
-2.70508008284191

>  <r_j_QM_Dipole_Y_(debye)> (1)
2.1634453812324

>  <r_j_QM_Dipole_Z_(debye)> (1)
1.06255492436832

>  <r_j_Lowest_Frequency_(cm-1)> (1)
89.1665501480829

>  <r_j_Highest_Frequency_(cm-1)> (1)
3215.29338711363

>  <r_j_2nd_Lowest_Frequency_(cm-1)> (1)
117.739155319469

>  <i_j_Num_Negative_Frequencies> (1)
0

>  <r_j_Zero_Point_Energy_(kcal/mol)> (1)
112.427492817537

>  <r_j_Entropy_(cal/mol/K)_298.15K_1.00E+00atm> (1)
94.6967277814076

>  <r_j_Enthalpy_(kcal/mol)_298.15K_1.00E+00atm> (1)
6.47557300058265

>  <r_j_Free_Energy_(kcal/mol)_298.15K_1.00E+00atm> (1)
-21.758256387444

>  <r_j_Internal_Energy_(kcal/mol)_298.15K_1.00E+00atm> (1)
5.88308741175537

>  <r_j_Heat_Capacity_(cal/mol/K)_298.15K_1.00E+00atm> (1)
37.5789609066019

>  <r_j_ln(Q)_298.15K_1.00E+00atm> (1)
36.7236888082136

>  <r_j_Total_Internal_Energy_(au)_298.15K_1.00E+00atm> (1)
-496.553342987025

>  <r_j_Total_Enthalpy_(au)_298.15K_1.00E+00atm> (1)
-496.552398801133

>  <r_j_Total_Free_Energy_(au)_298.15K_1.00E+00atm> (1)
-496.597392272527

>  <r_epik_Ionization_Penalty> (1)
  0.0031

>  <r_epik_Ionization_Penalty_Charging> (1)
  0.0000

>  <r_epik_Ionization_Penalty_Neutral> (1)
  0.0031

>  <r_epik_State_Penalty> (1)
  0.0022

>  <r_epik_Charging_Adjusted_Penalty> (1)
0.00215052

>  <i_epik_Tot_Q> (1)
0

>  <i_epik_Tot_abs_Q> (1)
0

>  <s_lp_Force_Field> (1)
S-OPLS

>  <r_lp_Energy> (1)
15.1513

>  <b_lp_Chiralities_Consistent> (1)
1

$$$$
