10241_9-fluorenone
                    3D
 Schrodinger Suite 2021-3.
 22 24  0  0  1  0            999 V2000
   -1.6648    4.6092    0.7754 C   0  0  0  0  0  0
   -2.8461    4.6212    0.0287 C   0  0  0  0  0  0
   -3.1560    3.5528   -0.8233 C   0  0  0  0  0  0
   -2.2625    2.4968   -0.8996 C   0  0  0  0  0  0
   -1.0704    2.4788   -0.1495 C   0  0  0  0  0  0
   -0.7630    3.5375    0.6951 C   0  0  0  0  0  0
   -0.3420    1.2243   -0.4527 C   0  0  0  0  0  0
    0.8677    0.7275    0.0153 C   0  0  0  0  0  0
    1.3086   -0.5152   -0.4644 C   0  0  0  0  0  0
    0.5574   -1.2441   -1.3905 C   0  0  0  0  0  0
   -0.6629   -0.7429   -1.8627 C   0  0  0  0  0  0
   -1.0943    0.4844   -1.3863 C   0  0  0  0  0  0
   -2.3430    1.2440   -1.7185 C   0  0  0  0  0  0
   -3.2297    0.9150   -2.4865 O   0  0  0  0  0  0
   -1.4400    5.4457    1.4310 H   0  0  0  0  0  0
   -3.5253    5.4642    0.1114 H   0  0  0  0  0  0
   -4.0670    3.5382   -1.4139 H   0  0  0  0  0  0
    0.1512    3.5419    1.2813 H   0  0  0  0  0  0
    1.4628    1.2820    0.7349 H   0  0  0  0  0  0
    2.2524   -0.9185   -0.1086 H   0  0  0  0  0  0
    0.9239   -2.2030   -1.7440 H   0  0  0  0  0  0
   -1.2652   -1.2894   -2.5821 H   0  0  0  0  0  0
  1  6  1  0  0  0
  1  2  2  0  0  0
  1 15  1  0  0  0
  2  3  1  0  0  0
  2 16  1  0  0  0
  3  4  2  0  0  0
  3 17  1  0  0  0
  4 13  1  0  0  0
  4  5  1  0  0  0
  5  6  2  0  0  0
  5  7  1  0  0  0
  6 18  1  0  0  0
  7 12  1  0  0  0
  7  8  2  0  0  0
  8  9  1  0  0  0
  8 19  1  0  0  0
  9 10  2  0  0  0
  9 20  1  0  0  0
 10 11  1  0  0  0
 10 21  1  0  0  0
 11 12  2  0  0  0
 11 22  1  0  0  0
 12 13  1  0  0  0
 13 14  2  0  0  0
M  END
>  <i_m_Spin_multiplicity> (1)
1

>  <s_j_Task> (1)
Single Point

>  <s_j_QM_Method> (1)
DFT(b3lyp-d3)

>  <s_j_QM_Basis> (1)
cc-pvtz(-f)

>  <i_j_Number_of_canonical_orbitals> (1)
384

>  <i_j_Geometry_convergence_category> (1)
0

>  <r_j_Gas_Phase_Energy> (1)
-575.626390491415

>  <r_j_Final_Energy> (1)
-575.626390491415

>  <r_j_HOMO> (1)
-0.225191144930072

>  <r_j_LUMO> (1)
-0.0805448953758516

>  <r_j_Polarizability> (1)
149.924453957846

>  <r_j_QM_Dipole_(debye)> (1)
3.43275541480083

>  <r_j_QM_Dipole_X_(debye)> (1)
2.49834800330966

>  <r_j_QM_Dipole_Y_(debye)> (1)
0.92775350907664

>  <r_j_QM_Dipole_Z_(debye)> (1)
2.16364054745677

>  <r_j_Lowest_Frequency_(cm-1)> (1)
115.102759317807

>  <r_j_Highest_Frequency_(cm-1)> (1)
3153.3431894461

>  <r_j_2nd_Lowest_Frequency_(cm-1)> (1)
149.106448080162

>  <i_j_Num_Negative_Frequencies> (1)
0

>  <r_j_Zero_Point_Energy_(kcal/mol)> (1)
105.805670422062

>  <r_j_Entropy_(cal/mol/K)_298.15K_1.00E+00atm> (1)
94.8977032203119

>  <r_j_Enthalpy_(kcal/mol)_298.15K_1.00E+00atm> (1)
6.47171357822767

>  <r_j_Free_Energy_(kcal/mol)_298.15K_1.00E+00atm> (1)
-21.8220366369083

>  <r_j_Internal_Energy_(kcal/mol)_298.15K_1.00E+00atm> (1)
5.8792279894004

>  <r_j_Heat_Capacity_(cal/mol/K)_298.15K_1.00E+00atm> (1)
39.2085150103694

>  <r_j_ln(Q)_298.15K_1.00E+00atm> (1)
36.8313374171706

>  <r_j_Total_Internal_Energy_(au)_298.15K_1.00E+00atm> (1)
-575.448409275592

>  <r_j_Total_Enthalpy_(au)_298.15K_1.00E+00atm> (1)
-575.4474650897

>  <r_j_Total_Free_Energy_(au)_298.15K_1.00E+00atm> (1)
-575.492554051011

>  <r_lp_tautomer_probability> (1)
1

>  <r_epik_Ionization_Penalty> (1)
  0.0000

>  <r_epik_Ionization_Penalty_Charging> (1)
  0.0000

>  <r_epik_Ionization_Penalty_Neutral> (1)
  0.0000

>  <r_epik_State_Penalty> (1)
  0.0000

>  <r_epik_Charging_Adjusted_Penalty> (1)
0

>  <i_epik_Tot_Q> (1)
0

>  <i_epik_Tot_abs_Q> (1)
0

>  <s_lp_Force_Field> (1)
S-OPLS

>  <r_lp_Energy> (1)
18.3373

>  <b_lp_Chiralities_Consistent> (1)
1

$$$$
