10263_1,2,3,4-tetramethylbenzene
                    3D
 Schrodinger Suite 2021-3.
 24 24  0  0  1  0            999 V2000
   -0.0335   -0.0510   -0.0001 C   0  0  0  0  0  0
    1.4808    0.0217    0.0000 C   0  0  0  0  0  0
    2.1940    1.2369   -0.0001 C   0  0  0  0  0  0
    3.6086    1.2282   -0.0003 C   0  0  0  0  0  0
    4.3080    0.0042    0.0000 C   0  0  0  0  0  0
    3.5804   -1.1892    0.0002 C   0  0  0  0  0  0
    2.1928   -1.1803    0.0001 C   0  0  0  0  0  0
    5.8214   -0.0598    0.0005 C   0  0  0  0  0  0
    4.3725    2.5395   -0.0006 C   0  0  0  0  0  0
    1.4240    2.5450    0.0003 C   0  0  0  0  0  0
   -0.5172    0.9259    0.0004 H   0  0  0  0  0  0
   -0.3941   -0.5963    0.8799 H   0  0  0  0  0  0
   -0.3940   -0.5953   -0.8808 H   0  0  0  0  0  0
    4.1122   -2.1375    0.0006 H   0  0  0  0  0  0
    1.6472   -2.1214    0.0002 H   0  0  0  0  0  0
    6.1634   -1.0984    0.0013 H   0  0  0  0  0  0
    6.2534    0.4280    0.8821 H   0  0  0  0  0  0
    6.2542    0.4268   -0.8814 H   0  0  0  0  0  0
    5.4518    2.3892   -0.0034 H   0  0  0  0  0  0
    4.1344    3.1442    0.8818 H   0  0  0  0  0  0
    4.1301    3.1463   -0.8805 H   0  0  0  0  0  0
    2.0741    3.4184    0.0022 H   0  0  0  0  0  0
    0.7753    2.6240    0.8803 H   0  0  0  0  0  0
    0.7773    2.6261   -0.8811 H   0  0  0  0  0  0
  1  2  1  0  0  0
  1 11  1  0  0  0
  1 12  1  0  0  0
  1 13  1  0  0  0
  2  7  1  0  0  0
  2  3  2  0  0  0
  3  4  1  0  0  0
  3 10  1  0  0  0
  4  5  2  0  0  0
  4  9  1  0  0  0
  5  6  1  0  0  0
  5  8  1  0  0  0
  6  7  2  0  0  0
  6 14  1  0  0  0
  7 15  1  0  0  0
  8 16  1  0  0  0
  8 17  1  0  0  0
  8 18  1  0  0  0
  9 19  1  0  0  0
  9 20  1  0  0  0
  9 21  1  0  0  0
 10 22  1  0  0  0
 10 23  1  0  0  0
 10 24  1  0  0  0
M  END
>  <i_m_Spin_multiplicity> (1)
1

>  <s_j_Task> (1)
Single Point

>  <s_j_QM_Method> (1)
DFT(b3lyp-d3)

>  <s_j_QM_Basis> (1)
cc-pvtz(-f)

>  <i_j_Number_of_canonical_orbitals> (1)
348

>  <i_j_Geometry_convergence_category> (1)
0

>  <r_j_Gas_Phase_Energy> (1)
-389.652978808832

>  <r_j_Final_Energy> (1)
-389.652978808832

>  <r_j_HOMO> (1)
-0.224534029427666

>  <r_j_LUMO> (1)
-0.00236837906313933

>  <r_j_Polarizability> (1)
116.07123913722

>  <r_j_QM_Dipole_(debye)> (1)
0.548972819471101

>  <r_j_QM_Dipole_X_(debye)> (1)
-0.0558268262620814

>  <r_j_QM_Dipole_Y_(debye)> (1)
0.546126212678319

>  <r_j_QM_Dipole_Z_(debye)> (1)
0.000825719800518871

>  <r_j_Lowest_Frequency_(cm-1)> (1)
98.3541987406132

>  <r_j_Highest_Frequency_(cm-1)> (1)
3123.58675524141

>  <r_j_2nd_Lowest_Frequency_(cm-1)> (1)
130.865401431367

>  <i_j_Num_Negative_Frequencies> (1)
0

>  <r_j_Zero_Point_Energy_(kcal/mol)> (1)
132.115815414766

>  <r_j_Entropy_(cal/mol/K)_298.15K_1.00E+00atm> (1)
96.3903319830471

>  <r_j_Enthalpy_(kcal/mol)_298.15K_1.00E+00atm> (1)
7.04010973262694

>  <r_j_Free_Energy_(kcal/mol)_298.15K_1.00E+00atm> (1)
-21.6986677481186

>  <r_j_Internal_Energy_(kcal/mol)_298.15K_1.00E+00atm> (1)
6.44762414379967

>  <r_j_Heat_Capacity_(cal/mol/K)_298.15K_1.00E+00atm> (1)
40.2371435909578

>  <r_j_ln(Q)_298.15K_1.00E+00atm> (1)
36.6231148188219

>  <r_j_Total_Internal_Energy_(au)_298.15K_1.00E+00atm> (1)
-389.432163910918

>  <r_j_Total_Enthalpy_(au)_298.15K_1.00E+00atm> (1)
-389.431219725025

>  <r_j_Total_Free_Energy_(au)_298.15K_1.00E+00atm> (1)
-389.477017882431

>  <r_lp_tautomer_probability> (1)
1

>  <r_epik_Ionization_Penalty> (1)
  0.0000

>  <r_epik_Ionization_Penalty_Charging> (1)
  0.0000

>  <r_epik_Ionization_Penalty_Neutral> (1)
  0.0000

>  <r_epik_State_Penalty> (1)
  0.0000

>  <r_epik_Charging_Adjusted_Penalty> (1)
0

>  <i_epik_Tot_Q> (1)
0

>  <i_epik_Tot_abs_Q> (1)
0

>  <s_lp_Force_Field> (1)
S-OPLS

>  <r_lp_Energy> (1)
7.18704

>  <b_lp_Chiralities_Consistent> (1)
1

$$$$
