102646_Triethylene Glycol Mono-2-Ethylhexyl Ether
                    3D
 Schrodinger Suite 2021-3.
 48 47  0  0  1  0            999 V2000
   -2.3336    0.9885    4.7813 C   0  0  0  0  0  0
   -2.6628    0.4178    3.3989 C   0  0  0  0  0  0
   -1.8578    1.0737    2.2700 C   0  0  0  0  0  0
   -2.1715    0.4746    0.8944 C   0  0  0  0  0  0
   -1.5257    1.1933   -0.3076 C   0  0  0  0  0  0
   -1.9168    0.4861   -1.6216 C   0  0  0  0  0  0
   -1.5264    1.2364   -2.8993 C   0  0  0  0  0  0
   -0.0075    1.3110   -0.1529 C   0  0  0  0  0  0
    0.5340    0.0049    0.0012 O   0  0  0  0  0  0
    1.9415   -0.0119    0.0991 C   0  0  0  0  0  0
    2.3566   -1.4558    0.3393 C   0  0  0  0  0  0
    3.7761   -1.4868    0.3358 O   0  0  0  0  0  0
    4.3614   -2.7636    0.5668 C   0  0  0  0  0  0
    5.7721   -2.7625   -0.0002 C   0  0  0  0  0  0
    5.7199   -2.8468   -1.4167 O   0  0  0  0  0  0
    6.3760   -1.8250   -2.1652 C   0  0  0  0  0  0
    5.4919   -0.6041   -2.4097 C   0  0  0  0  0  0
    5.2968    0.1932   -1.2567 O   0  0  0  0  0  0
   -2.9220    0.5045    5.5678 H   0  0  0  0  0  0
   -2.5413    2.0640    4.8233 H   0  0  0  0  0  0
   -1.2737    0.8485    5.0233 H   0  0  0  0  0  0
   -2.4738   -0.6644    3.3925 H   0  0  0  0  0  0
   -3.7357    0.5390    3.1964 H   0  0  0  0  0  0
   -2.0589    2.1552    2.2616 H   0  0  0  0  0  0
   -0.7878    0.9600    2.4871 H   0  0  0  0  0  0
   -1.8553   -0.5756    0.8832 H   0  0  0  0  0  0
   -3.2599    0.4731    0.7456 H   0  0  0  0  0  0
   -1.9096    2.2250   -0.3411 H   0  0  0  0  0  0
   -1.4609   -0.5110   -1.6242 H   0  0  0  0  0  0
   -3.0034    0.3312   -1.6179 H   0  0  0  0  0  0
   -1.9084    0.7209   -3.7864 H   0  0  0  0  0  0
   -0.4405    1.3152   -3.0136 H   0  0  0  0  0  0
   -1.9361    2.2535   -2.9037 H   0  0  0  0  0  0
    0.4373    1.8052   -1.0306 H   0  0  0  0  0  0
    0.2457    1.9298    0.7224 H   0  0  0  0  0  0
    2.4204    0.3603   -0.8214 H   0  0  0  0  0  0
    2.2973    0.6189    0.9300 H   0  0  0  0  0  0
    1.9563   -1.8085    1.3011 H   0  0  0  0  0  0
    1.9491   -2.0974   -0.4557 H   0  0  0  0  0  0
    4.3779   -2.9801    1.6465 H   0  0  0  0  0  0
    3.7797   -3.5491    0.0644 H   0  0  0  0  0  0
    6.2983   -1.8600    0.3357 H   0  0  0  0  0  0
    6.3101   -3.6372    0.3954 H   0  0  0  0  0  0
    7.3073   -1.5096   -1.6723 H   0  0  0  0  0  0
    6.6391   -2.2836   -3.1266 H   0  0  0  0  0  0
    5.9770    0.0320   -3.1613 H   0  0  0  0  0  0
    4.5370   -0.9516   -2.8373 H   0  0  0  0  0  0
    4.7329   -0.3185   -0.6496 H   0  0  0  0  0  0
  1  2  1  0  0  0
  1 19  1  0  0  0
  1 20  1  0  0  0
  1 21  1  0  0  0
  2  3  1  0  0  0
  2 22  1  0  0  0
  2 23  1  0  0  0
  3  4  1  0  0  0
  3 24  1  0  0  0
  3 25  1  0  0  0
  4  5  1  0  0  0
  4 26  1  0  0  0
  4 27  1  0  0  0
  5  6  1  0  0  0
  5  8  1  0  0  0
  5 28  1  0  0  0
  6  7  1  0  0  0
  6 29  1  0  0  0
  6 30  1  0  0  0
  7 31  1  0  0  0
  7 32  1  0  0  0
  7 33  1  0  0  0
  8  9  1  0  0  0
  8 34  1  0  0  0
  8 35  1  0  0  0
  9 10  1  0  0  0
 10 11  1  0  0  0
 10 36  1  0  0  0
 10 37  1  0  0  0
 11 12  1  0  0  0
 11 38  1  0  0  0
 11 39  1  0  0  0
 12 13  1  0  0  0
 13 14  1  0  0  0
 13 40  1  0  0  0
 13 41  1  0  0  0
 14 15  1  0  0  0
 14 42  1  0  0  0
 14 43  1  0  0  0
 15 16  1  0  0  0
 16 17  1  0  0  0
 16 44  1  0  0  0
 16 45  1  0  0  0
 17 18  1  0  0  0
 17 46  1  0  0  0
 17 47  1  0  0  0
 18 48  1  0  0  0
M  END
>  <i_m_Spin_multiplicity> (1)
1

>  <s_j_Task> (1)
Single Point

>  <s_j_QM_Method> (1)
DFT(b3lyp-d3)

>  <s_j_QM_Basis> (1)
cc-pvtz(-f)

>  <i_j_Number_of_canonical_orbitals> (1)
682

>  <i_j_Geometry_convergence_category> (1)
1

>  <r_j_Gas_Phase_Energy> (1)
-852.766212999633

>  <r_j_Final_Energy> (1)
-852.766212999633

>  <r_j_HOMO> (1)
-0.246387651935235

>  <r_j_LUMO> (1)
0.014951343727555

>  <r_j_Polarizability> (1)
189.824871959098

>  <r_j_QM_Dipole_(debye)> (1)
1.37007217387956

>  <r_j_QM_Dipole_X_(debye)> (1)
-0.602193510578058

>  <r_j_QM_Dipole_Y_(debye)> (1)
-0.902548192252909

>  <r_j_QM_Dipole_Z_(debye)> (1)
0.836580837766283

>  <r_j_Lowest_Frequency_(cm-1)> (1)
28.0139586484943

>  <r_j_Highest_Frequency_(cm-1)> (1)
3591.55588840426

>  <r_j_2nd_Lowest_Frequency_(cm-1)> (1)
31.5520952374668

>  <i_j_Num_Negative_Frequencies> (1)
0

>  <r_j_Zero_Point_Energy_(kcal/mol)> (1)
273.68703964611

>  <r_j_Entropy_(cal/mol/K)_298.15K_1.00E+00atm> (1)
148.401804536101

>  <r_j_Enthalpy_(kcal/mol)_298.15K_1.00E+00atm> (1)
13.8115415887827

>  <r_j_Free_Energy_(kcal/mol)_298.15K_1.00E+00atm> (1)
-30.4344564336558

>  <r_j_Internal_Energy_(kcal/mol)_298.15K_1.00E+00atm> (1)
13.2190559999554

>  <r_j_Heat_Capacity_(cal/mol/K)_298.15K_1.00E+00atm> (1)
79.2676617003093

>  <r_j_ln(Q)_298.15K_1.00E+00atm> (1)
51.3674205880614

>  <r_j_Total_Internal_Energy_(au)_298.15K_1.00E+00atm> (1)
-852.308999030183

>  <r_j_Total_Enthalpy_(au)_298.15K_1.00E+00atm> (1)
-852.308054844291

>  <r_j_Total_Free_Energy_(au)_298.15K_1.00E+00atm> (1)
-852.378565330806

>  <r_lp_tautomer_probability> (1)
1

>  <r_epik_Ionization_Penalty> (1)
  0.0000

>  <r_epik_Ionization_Penalty_Charging> (1)
  0.0000

>  <r_epik_Ionization_Penalty_Neutral> (1)
  0.0000

>  <r_epik_State_Penalty> (1)
  0.0000

>  <r_epik_Charging_Adjusted_Penalty> (1)
0

>  <i_epik_Tot_Q> (1)
0

>  <i_epik_Tot_abs_Q> (1)
0

>  <s_lp_Force_Field> (1)
S-OPLS

>  <r_lp_Energy> (1)
12.211211

>  <b_lp_Chiralities_Consistent> (1)
1

$$$$
