102778_Solanone
                    3D
 Schrodinger Suite 2021-3.
 36 35  0  0  1  0            999 V2000
   -0.2724   -2.1848    1.5395 C   0  0  0  0  0  0
   -0.6399   -0.6954    1.4580 C   0  0  0  0  0  0
   -2.1664   -0.5331    1.5385 C   0  0  0  0  0  0
   -0.0574   -0.0075    0.1820 C   0  0  0  0  0  0
    1.4788   -0.1143    0.1144 C   0  0  0  0  0  0
    2.0811    0.4779   -1.1596 C   0  0  0  0  0  0
    3.5987    0.3757   -1.2102 C   0  0  0  0  0  0
    4.2451   -0.0866   -0.2880 O   0  0  0  0  0  0
    4.2700    0.8889   -2.4732 C   0  0  0  0  0  0
   -0.5601    1.4209    0.0805 C   0  0  0  0  0  0
   -0.0063    2.4928    0.6658 C   0  0  0  0  0  0
   -0.5290    3.8720    0.5910 C   0  0  0  0  0  0
   -1.1106    4.3665   -0.5126 C   0  0  0  0  0  0
   -0.3512    4.7022    1.8416 C   0  0  0  0  0  0
   -0.6220   -2.7192    0.6472 H   0  0  0  0  0  0
   -0.7485   -2.6495    2.4093 H   0  0  0  0  0  0
    0.8040   -2.3493    1.6303 H   0  0  0  0  0  0
   -0.1981   -0.1787    2.3229 H   0  0  0  0  0  0
   -2.6515   -0.9839    0.6634 H   0  0  0  0  0  0
   -2.4626    0.5183    1.5832 H   0  0  0  0  0  0
   -2.5629   -1.0318    2.4290 H   0  0  0  0  0  0
   -0.4669   -0.5566   -0.6806 H   0  0  0  0  0  0
    1.9351    0.3689    0.9856 H   0  0  0  0  0  0
    1.7811   -1.1626    0.1759 H   0  0  0  0  0  0
    1.6721   -0.0147   -2.0542 H   0  0  0  0  0  0
    1.8093    1.5360   -1.2688 H   0  0  0  0  0  0
    3.9975    1.9350   -2.6544 H   0  0  0  0  0  0
    3.9293    0.3151   -3.3429 H   0  0  0  0  0  0
    5.3532    0.8002   -2.3778 H   0  0  0  0  0  0
   -1.4858    1.5675   -0.4731 H   0  0  0  0  0  0
    0.8833    2.3590    1.2833 H   0  0  0  0  0  0
   -1.1904    3.7821   -1.4241 H   0  0  0  0  0  0
   -1.5150    5.3739   -0.5376 H   0  0  0  0  0  0
   -0.8641    4.2410    2.6945 H   0  0  0  0  0  0
   -0.7370    5.7173    1.7157 H   0  0  0  0  0  0
    0.7098    4.7717    2.1139 H   0  0  0  0  0  0
  1  2  1  0  0  0
  1 15  1  0  0  0
  1 16  1  0  0  0
  1 17  1  0  0  0
  2  3  1  0  0  0
  2  4  1  0  0  0
  2 18  1  0  0  0
  3 19  1  0  0  0
  3 20  1  0  0  0
  3 21  1  0  0  0
  4  5  1  0  0  0
  4 10  1  0  0  0
  4 22  1  0  0  0
  5  6  1  0  0  0
  5 23  1  0  0  0
  5 24  1  0  0  0
  6  7  1  0  0  0
  6 25  1  0  0  0
  6 26  1  0  0  0
  7  8  2  0  0  0
  7  9  1  0  0  0
  9 27  1  0  0  0
  9 28  1  0  0  0
  9 29  1  0  0  0
 10 11  2  0  0  0
 10 30  1  0  0  0
 11 12  1  0  0  0
 11 31  1  0  0  0
 12 13  2  0  0  0
 12 14  1  0  0  0
 13 32  1  0  0  0
 13 33  1  0  0  0
 14 34  1  0  0  0
 14 35  1  0  0  0
 14 36  1  0  0  0
M  END
>  <i_m_Spin_multiplicity> (1)
1

>  <s_j_Task> (1)
Single Point

>  <s_j_QM_Method> (1)
DFT(b3lyp-d3)

>  <s_j_QM_Basis> (1)
cc-pvtz(-f)

>  <i_j_Number_of_canonical_orbitals> (1)
515

>  <i_j_Geometry_convergence_category> (1)
3

>  <r_j_Gas_Phase_Energy> (1)
-584.060394764179

>  <r_j_Final_Energy> (1)
-584.060394764179

>  <r_j_HOMO> (1)
-0.218647149559799

>  <r_j_LUMO> (1)
-0.0187793777682245

>  <r_j_Polarizability> (1)
160.465469351307

>  <r_j_QM_Dipole_(debye)> (1)
2.17294888351102

>  <r_j_QM_Dipole_X_(debye)> (1)
-1.48507348173974

>  <r_j_QM_Dipole_Y_(debye)> (1)
0.696239778100961

>  <r_j_QM_Dipole_Z_(debye)> (1)
-1.42531181696325

>  <r_j_Lowest_Frequency_(cm-1)> (1)
52.0444815536194

>  <r_j_Highest_Frequency_(cm-1)> (1)
3177.68828218943

>  <r_j_2nd_Lowest_Frequency_(cm-1)> (1)
76.4896562385004

>  <i_j_Num_Negative_Frequencies> (1)
0

>  <r_j_Zero_Point_Energy_(kcal/mol)> (1)
200.916481822179

>  <r_j_Entropy_(cal/mol/K)_298.15K_1.00E+00atm> (1)
125.486424531335

>  <r_j_Enthalpy_(kcal/mol)_298.15K_1.00E+00atm> (1)
10.8222646218643

>  <r_j_Free_Energy_(kcal/mol)_298.15K_1.00E+00atm> (1)
-26.5915128521532

>  <r_j_Internal_Energy_(kcal/mol)_298.15K_1.00E+00atm> (1)
10.229779033037

>  <r_j_Heat_Capacity_(cal/mol/K)_298.15K_1.00E+00atm> (1)
62.3938282722098

>  <r_j_ln(Q)_298.15K_1.00E+00atm> (1)
44.8812820996821

>  <r_j_Total_Internal_Energy_(au)_298.15K_1.00E+00atm> (1)
-583.723911777149

>  <r_j_Total_Enthalpy_(au)_298.15K_1.00E+00atm> (1)
-583.722967591257

>  <r_j_Total_Free_Energy_(au)_298.15K_1.00E+00atm> (1)
-583.782590241213

>  <r_lp_tautomer_probability> (1)
1

>  <r_epik_Ionization_Penalty> (1)
  0.0000

>  <r_epik_Ionization_Penalty_Charging> (1)
  0.0000

>  <r_epik_Ionization_Penalty_Neutral> (1)
  0.0000

>  <r_epik_State_Penalty> (1)
  0.0000

>  <r_epik_Charging_Adjusted_Penalty> (1)
0

>  <i_epik_Tot_Q> (1)
0

>  <i_epik_Tot_abs_Q> (1)
0

>  <s_lp_Force_Field> (1)
S-OPLS

>  <r_lp_Energy> (1)
2.597569

>  <b_lp_Chiralities_Consistent> (1)
1

$$$$
