103002_4-methyl-trans-2-hexene
                    3D
 Schrodinger Suite 2021-3.
 21 20  0  0  1  0            999 V2000
   -0.6860    1.3612   -0.0050 C   0  0  0  0  0  0
   -0.0328   -0.0222    0.0472 C   0  0  0  0  0  0
    1.5115    0.0179    0.0061 C   0  0  0  0  0  0
    2.0874   -1.4058   -0.1015 C   0  0  0  0  0  0
    2.0723    0.7209    1.2165 C   0  0  0  0  0  0
    2.7909    1.8454    1.2055 C   0  0  0  0  0  0
    3.3482    2.5318    2.4197 C   0  0  0  0  0  0
   -1.7776    1.2873    0.0272 H   0  0  0  0  0  0
   -0.4133    1.8875   -0.9272 H   0  0  0  0  0  0
   -0.3604    1.9827    0.8348 H   0  0  0  0  0  0
   -0.3475   -0.5487    0.9594 H   0  0  0  0  0  0
   -0.3901   -0.6307   -0.7940 H   0  0  0  0  0  0
    1.8103    0.5806   -0.8903 H   0  0  0  0  0  0
    3.1794   -1.3859   -0.1662 H   0  0  0  0  0  0
    1.6993   -1.9224   -0.9863 H   0  0  0  0  0  0
    1.8154   -2.0017    0.7781 H   0  0  0  0  0  0
    1.8545    0.2426    2.1751 H   0  0  0  0  0  0
    3.0033    2.3200    0.2460 H   0  0  0  0  0  0
    4.4421    2.6062    2.3679 H   0  0  0  0  0  0
    3.0889    1.9979    3.3394 H   0  0  0  0  0  0
    2.9691    3.5583    2.5052 H   0  0  0  0  0  0
  1  2  1  0  0  0
  1  8  1  0  0  0
  1  9  1  0  0  0
  1 10  1  0  0  0
  2  3  1  0  0  0
  2 11  1  0  0  0
  2 12  1  0  0  0
  3  4  1  0  0  0
  3  5  1  0  0  0
  3 13  1  0  0  0
  4 14  1  0  0  0
  4 15  1  0  0  0
  4 16  1  0  0  0
  5  6  2  0  0  0
  5 17  1  0  0  0
  6  7  1  0  0  0
  6 18  1  0  0  0
  7 19  1  0  0  0
  7 20  1  0  0  0
  7 21  1  0  0  0
M  END
>  <i_m_Spin_multiplicity> (1)
1

>  <s_j_Task> (1)
Single Point

>  <s_j_QM_Method> (1)
DFT(b3lyp-d3)

>  <s_j_QM_Basis> (1)
cc-pvtz(-f)

>  <i_j_Number_of_canonical_orbitals> (1)
285

>  <i_j_Geometry_convergence_category> (1)
0

>  <r_j_Gas_Phase_Energy> (1)
-275.279175168635

>  <r_j_Final_Energy> (1)
-275.279175168635

>  <r_j_HOMO> (1)
-0.245413855803816

>  <r_j_LUMO> (1)
0.0161045889331311

>  <r_j_Polarizability> (1)
87.5208967730596

>  <r_j_QM_Dipole_(debye)> (1)
0.111999119010699

>  <r_j_QM_Dipole_X_(debye)> (1)
0.0763349231649531

>  <r_j_QM_Dipole_Y_(debye)> (1)
0.0818601918612269

>  <r_j_QM_Dipole_Z_(debye)> (1)
0.00396120600532795

>  <r_j_Lowest_Frequency_(cm-1)> (1)
100.178197546346

>  <r_j_Highest_Frequency_(cm-1)> (1)
3076.78652662898

>  <r_j_2nd_Lowest_Frequency_(cm-1)> (1)
155.842467181158

>  <i_j_Num_Negative_Frequencies> (1)
0

>  <r_j_Zero_Point_Energy_(kcal/mol)> (1)
120.947232608972

>  <r_j_Entropy_(cal/mol/K)_298.15K_1.00E+00atm> (1)
89.0186186207078

>  <r_j_Enthalpy_(kcal/mol)_298.15K_1.00E+00atm> (1)
6.08327342229035

>  <r_j_Free_Energy_(kcal/mol)_298.15K_1.00E+00atm> (1)
-20.4576277194737

>  <r_j_Internal_Energy_(kcal/mol)_298.15K_1.00E+00atm> (1)
5.49078783346308

>  <r_j_Heat_Capacity_(cal/mol/K)_298.15K_1.00E+00atm> (1)
32.6745600939568

>  <r_j_ln(Q)_298.15K_1.00E+00atm> (1)
34.5284815449539

>  <r_j_Total_Internal_Energy_(au)_298.15K_1.00E+00atm> (1)
-275.07768335618

>  <r_j_Total_Enthalpy_(au)_298.15K_1.00E+00atm> (1)
-275.076739170288

>  <r_j_Total_Free_Energy_(au)_298.15K_1.00E+00atm> (1)
-275.119034788778

>  <r_lp_tautomer_probability> (1)
1

>  <r_epik_Ionization_Penalty> (1)
  0.0000

>  <r_epik_Ionization_Penalty_Charging> (1)
  0.0000

>  <r_epik_Ionization_Penalty_Neutral> (1)
  0.0000

>  <r_epik_State_Penalty> (1)
  0.0000

>  <r_epik_Charging_Adjusted_Penalty> (1)
0

>  <i_epik_Tot_Q> (1)
0

>  <i_epik_Tot_abs_Q> (1)
0

>  <s_lp_Force_Field> (1)
S-OPLS

>  <r_lp_Energy> (1)
-1.585082

>  <b_lp_Chiralities_Consistent> (1)
1

$$$$
