10326_Indane
                    3D
 Schrodinger Suite 2021-3.
 19 20  0  0  1  0            999 V2000
   -3.2744    1.7995   -4.3876 C   0  0  0  0  0  0
   -1.7669    2.0586   -4.6352 C   0  0  0  0  0  0
   -1.1129    1.4462   -3.4145 C   0  0  0  0  0  0
    0.2190    1.0925   -3.2152 C   0  0  0  0  0  0
    0.6021    0.5521   -1.9840 C   0  0  0  0  0  0
   -0.3383    0.3741   -0.9658 C   0  0  0  0  0  0
   -1.6745    0.7342   -1.1651 C   0  0  0  0  0  0
   -2.0560    1.2677   -2.3934 C   0  0  0  0  0  0
   -3.4198    1.7457   -2.8457 C   0  0  0  0  0  0
   -3.5439    0.8237   -4.8070 H   0  0  0  0  0  0
   -3.9205    2.5490   -4.8532 H   0  0  0  0  0  0
   -1.4082    1.6330   -5.5784 H   0  0  0  0  0  0
   -1.5576    3.1372   -4.6734 H   0  0  0  0  0  0
    0.9514    1.2278   -4.0071 H   0  0  0  0  0  0
    1.6366    0.2642   -1.8183 H   0  0  0  0  0  0
   -0.0290   -0.0510   -0.0150 H   0  0  0  0  0  0
   -2.4052    0.5927   -0.3728 H   0  0  0  0  0  0
   -3.6226    2.7462   -2.4379 H   0  0  0  0  0  0
   -4.2379    1.0972   -2.5149 H   0  0  0  0  0  0
  1  9  1  0  0  0
  1  2  1  0  0  0
  1 10  1  0  0  0
  1 11  1  0  0  0
  2  3  1  0  0  0
  2 12  1  0  0  0
  2 13  1  0  0  0
  3  8  1  0  0  0
  3  4  2  0  0  0
  4  5  1  0  0  0
  4 14  1  0  0  0
  5  6  2  0  0  0
  5 15  1  0  0  0
  6  7  1  0  0  0
  6 16  1  0  0  0
  7  8  2  0  0  0
  7 17  1  0  0  0
  8  9  1  0  0  0
  9 18  1  0  0  0
  9 19  1  0  0  0
M  END
>  <i_m_Spin_multiplicity> (1)
1

>  <s_j_Task> (1)
Single Point

>  <s_j_QM_Method> (1)
DFT(b3lyp-d3)

>  <s_j_QM_Basis> (1)
cc-pvtz(-f)

>  <i_j_Number_of_canonical_orbitals> (1)
291

>  <i_j_Geometry_convergence_category> (1)
3

>  <r_j_Gas_Phase_Energy> (1)
-349.108521190413

>  <r_j_Final_Energy> (1)
-349.108521190413

>  <r_j_HOMO> (1)
-0.215202675967064

>  <r_j_LUMO> (1)
0.00809866117231956

>  <r_j_Polarizability> (1)
96.9696787593912

>  <r_j_QM_Dipole_(debye)> (1)
0.616119834648333

>  <r_j_QM_Dipole_X_(debye)> (1)
-0.435275336701138

>  <r_j_QM_Dipole_Y_(debye)> (1)
0.248349472697203

>  <r_j_QM_Dipole_Z_(debye)> (1)
-0.358415361442311

>  <r_j_Lowest_Frequency_(cm-1)> (1)
176.490983911575

>  <r_j_Highest_Frequency_(cm-1)> (1)
3142.31923779737

>  <r_j_2nd_Lowest_Frequency_(cm-1)> (1)
203.628714775027

>  <i_j_Num_Negative_Frequencies> (1)
0

>  <r_j_Zero_Point_Energy_(kcal/mol)> (1)
102.604030208118

>  <r_j_Entropy_(cal/mol/K)_298.15K_1.00E+00atm> (1)
80.9603642928421

>  <r_j_Enthalpy_(kcal/mol)_298.15K_1.00E+00atm> (1)
4.78994181593212

>  <r_j_Free_Energy_(kcal/mol)_298.15K_1.00E+00atm> (1)
-19.3483907979787

>  <r_j_Internal_Energy_(kcal/mol)_298.15K_1.00E+00atm> (1)
4.19745622710485

>  <r_j_Heat_Capacity_(cal/mol/K)_298.15K_1.00E+00atm> (1)
27.8960909663476

>  <r_j_ln(Q)_298.15K_1.00E+00atm> (1)
32.6563061833717

>  <r_j_Total_Internal_Energy_(au)_298.15K_1.00E+00atm> (1)
-348.938322186985

>  <r_j_Total_Enthalpy_(au)_298.15K_1.00E+00atm> (1)
-348.937378001093

>  <r_j_Total_Free_Energy_(au)_298.15K_1.00E+00atm> (1)
-348.975844882898

>  <r_lp_tautomer_probability> (1)
1

>  <r_epik_Ionization_Penalty> (1)
  0.0000

>  <r_epik_Ionization_Penalty_Charging> (1)
  0.0000

>  <r_epik_Ionization_Penalty_Neutral> (1)
  0.0000

>  <r_epik_State_Penalty> (1)
  0.0000

>  <r_epik_Charging_Adjusted_Penalty> (1)
0

>  <i_epik_Tot_Q> (1)
0

>  <i_epik_Tot_abs_Q> (1)
0

>  <s_lp_Force_Field> (1)
S-OPLS

>  <r_lp_Energy> (1)
13.696

>  <b_lp_Chiralities_Consistent> (1)
1

$$$$
