10340_Sodium Carbonate
                    3D
 Schrodinger Suite 2021-3.
  6  3  0  0  1  0            999 V2000
   -0.0687    0.5960    0.0000 C   0  0  0  0  0  0
   -1.2577    1.0681    0.0000 O   0  0  0  0  0  0
    0.0819   -0.7569    0.0000 O   0  5  0  0  0  0
    0.9870    1.3186    0.0000 O   0  5  0  0  0  0
   -2.0578   -0.9072    0.0000 Na  0  3  0  0  0  0
    2.2006   -0.4336    0.0000 Na  0  3  0  0  0  0
  1  2  2  0  0  0
  1  3  1  0  0  0
  1  4  1  0  0  0
M  END
>  <i_m_Spin_multiplicity> (1)
1

>  <s_j_Task> (1)
Single Point

>  <s_j_QM_Method> (1)
DFT(b3lyp-d3)

>  <s_j_QM_Basis> (1)
cc-pvtz(-f)

>  <i_j_Number_of_canonical_orbitals> (1)
146

>  <r_j_Gas_Phase_Energy> (1)
-588.636893617678

>  <r_j_Final_Energy> (1)
-588.636893617678

>  <r_j_Polarizability> (1)
41.6721169834134

>  <r_j_QM_Dipole_(debye)> (1)
8.23273295464927

>  <r_j_QM_Dipole_X_(debye)> (1)
0.90442361452606

>  <r_j_QM_Dipole_Y_(debye)> (1)
-8.18290350835313

>  <r_j_QM_Dipole_Z_(debye)> (1)
3.22144828120296e-05

>  <r_j_Zero_Point_Energy_(kcal/mol)> (1)
10.8991066892644

>  <r_j_Entropy_(cal/mol/K)_298.15K_1.00E+00atm> (1)
79.6428095693316

>  <r_j_Enthalpy_(kcal/mol)_298.15K_1.00E+00atm> (1)
4.44153447145394

>  <r_j_Free_Energy_(kcal/mol)_298.15K_1.00E+00atm> (1)
-19.3039692016423

>  <r_j_Internal_Energy_(kcal/mol)_298.15K_1.00E+00atm> (1)
3.84904888262666

>  <r_j_Heat_Capacity_(cal/mol/K)_298.15K_1.00E+00atm> (1)
19.0307379866809

>  <r_j_ln(Q)_298.15K_1.00E+00atm> (1)
32.5813312014074

>  <r_j_Total_Internal_Energy_(au)_298.15K_1.00E+00atm> (1)
-588.613390935604

>  <r_j_Total_Enthalpy_(au)_298.15K_1.00E+00atm> (1)
-588.612446749712

>  <r_j_Total_Free_Energy_(au)_298.15K_1.00E+00atm> (1)
-588.650287618748

>  <r_j_HOMO> (1)
-0.179343324498431

>  <r_j_LUMO> (1)
-0.0454473871563575

>  <r_j_Lowest_Frequency_(cm-1)> (1)
104.010609097554

>  <r_j_Highest_Frequency_(cm-1)> (1)
1526.24143211302

>  <r_j_2nd_Lowest_Frequency_(cm-1)> (1)
123.304267449164

>  <i_j_Num_Negative_Frequencies> (1)
0

>  <i_j_Geometry_convergence_category> (1)
1

$$$$
