103528_Dipropylene Glycol Phenyl Ether
                    3D
 Schrodinger Suite 2021-3.
 33 33  0  0  1  0            999 V2000
   -0.6150   -0.7829   -1.1531 C   0  0  0  0  0  0
   -0.0285    0.0355   -0.0126 C   0  0  0  0  0  0
   -0.4163    1.5135   -0.1043 C   0  0  0  0  0  0
   -1.8244    1.6004    0.0751 O   0  0  0  0  0  0
   -2.4228    2.8273    0.0033 C   0  0  0  0  0  0
   -3.8138    2.8302    0.1739 C   0  0  0  0  0  0
   -4.5165    4.0276    0.1198 C   0  0  0  0  0  0
   -3.8471    5.2352   -0.1042 C   0  0  0  0  0  0
   -2.4651    5.2252   -0.2732 C   0  0  0  0  0  0
   -1.7426    4.0294   -0.2216 C   0  0  0  0  0  0
    1.3922   -0.0588   -0.0878 O   0  0  0  0  0  0
    2.0679    0.0249    1.1633 C   0  0  0  0  0  0
    3.5616    0.1157    0.8898 C   0  0  0  0  0  0
    3.9335    1.3596    0.0919 C   0  0  0  0  0  0
    5.3505    1.3725   -0.0480 O   0  0  0  0  0  0
   -1.7023   -0.6771   -1.1737 H   0  0  0  0  0  0
   -0.3554   -1.8383   -1.0368 H   0  0  0  0  0  0
   -0.2087   -0.4319   -2.1074 H   0  0  0  0  0  0
   -0.3895   -0.3579    0.9503 H   0  0  0  0  0  0
    0.1071    2.0943    0.6679 H   0  0  0  0  0  0
   -0.1175    1.9043   -1.0874 H   0  0  0  0  0  0
   -4.3151    1.8834    0.3461 H   0  0  0  0  0  0
   -5.5946    4.0193    0.2530 H   0  0  0  0  0  0
   -4.3985    6.1693   -0.1461 H   0  0  0  0  0  0
   -1.9320    6.1556   -0.4482 H   0  0  0  0  0  0
   -0.6678    4.0456   -0.3563 H   0  0  0  0  0  0
    1.7344    0.9082    1.7329 H   0  0  0  0  0  0
    1.8392   -0.8613    1.7763 H   0  0  0  0  0  0
    4.1034    0.1271    1.8426 H   0  0  0  0  0  0
    3.8884   -0.7721    0.3380 H   0  0  0  0  0  0
    3.4241    1.3294   -0.8817 H   0  0  0  0  0  0
    3.5733    2.2583    0.6241 H   0  0  0  0  0  0
    5.5874    2.1056   -0.6294 H   0  0  0  0  0  0
  1  2  1  0  0  0
  1 16  1  0  0  0
  1 17  1  0  0  0
  1 18  1  0  0  0
  2  3  1  0  0  0
  2 11  1  0  0  0
  2 19  1  0  0  0
  3  4  1  0  0  0
  3 20  1  0  0  0
  3 21  1  0  0  0
  4  5  1  0  0  0
  5 10  1  0  0  0
  5  6  2  0  0  0
  6  7  1  0  0  0
  6 22  1  0  0  0
  7  8  2  0  0  0
  7 23  1  0  0  0
  8  9  1  0  0  0
  8 24  1  0  0  0
  9 10  2  0  0  0
  9 25  1  0  0  0
 10 26  1  0  0  0
 11 12  1  0  0  0
 12 13  1  0  0  0
 12 27  1  0  0  0
 12 28  1  0  0  0
 13 14  1  0  0  0
 13 29  1  0  0  0
 13 30  1  0  0  0
 14 15  1  0  0  0
 14 31  1  0  0  0
 14 32  1  0  0  0
 15 33  1  0  0  0
M  END
>  <i_m_Spin_multiplicity> (1)
1

>  <s_j_Task> (1)
Single Point

>  <s_j_QM_Method> (1)
DFT(b3lyp-d3)

>  <s_j_QM_Basis> (1)
cc-pvtz(-f)

>  <i_j_Number_of_canonical_orbitals> (1)
502

>  <i_j_Geometry_convergence_category> (1)
3

>  <r_j_Gas_Phase_Energy> (1)
-694.027082491658

>  <r_j_Final_Energy> (1)
-694.027082491658

>  <r_j_HOMO> (1)
-0.209121562043719

>  <r_j_LUMO> (1)
0.00557626849999829

>  <r_j_Polarizability> (1)
153.256329777965

>  <r_j_QM_Dipole_(debye)> (1)
1.04784192299941

>  <r_j_QM_Dipole_X_(debye)> (1)
-0.289438105287017

>  <r_j_QM_Dipole_Y_(debye)> (1)
1.00351842911517

>  <r_j_QM_Dipole_Z_(debye)> (1)
0.0845520031057332

>  <r_j_Lowest_Frequency_(cm-1)> (1)
33.6567768217412

>  <r_j_Highest_Frequency_(cm-1)> (1)
3775.22704668127

>  <r_j_2nd_Lowest_Frequency_(cm-1)> (1)
64.0949314743409

>  <i_j_Num_Negative_Frequencies> (1)
0

>  <r_j_Zero_Point_Energy_(kcal/mol)> (1)
178.055380665857

>  <r_j_Entropy_(cal/mol/K)_298.15K_1.00E+00atm> (1)
120.491348081191

>  <r_j_Enthalpy_(kcal/mol)_298.15K_1.00E+00atm> (1)
9.90033804128536

>  <r_j_Free_Energy_(kcal/mol)_298.15K_1.00E+00atm> (1)
-26.0241573891217

>  <r_j_Internal_Energy_(kcal/mol)_298.15K_1.00E+00atm> (1)
9.30785245245809

>  <r_j_Heat_Capacity_(cal/mol/K)_298.15K_1.00E+00atm> (1)
57.3282395387676

>  <r_j_ln(Q)_298.15K_1.00E+00atm> (1)
43.9236968457447

>  <r_j_Total_Internal_Energy_(au)_298.15K_1.00E+00atm> (1)
-693.728500172066

>  <r_j_Total_Enthalpy_(au)_298.15K_1.00E+00atm> (1)
-693.727555986174

>  <r_j_Total_Free_Energy_(au)_298.15K_1.00E+00atm> (1)
-693.784805314109

>  <r_lp_tautomer_probability> (1)
1

>  <r_epik_Ionization_Penalty> (1)
  0.0000

>  <r_epik_Ionization_Penalty_Charging> (1)
  0.0000

>  <r_epik_Ionization_Penalty_Neutral> (1)
  0.0000

>  <r_epik_State_Penalty> (1)
  0.0000

>  <r_epik_Charging_Adjusted_Penalty> (1)
0

>  <i_epik_Tot_Q> (1)
0

>  <i_epik_Tot_abs_Q> (1)
0

>  <s_lp_Force_Field> (1)
S-OPLS

>  <r_lp_Energy> (1)
13.9519

>  <b_lp_Chiralities_Consistent> (1)
1

$$$$
