10393_4-hydroxy benzeneethanol
                    3D
 Schrodinger Suite 2021-3.
 20 20  0  0  1  0            999 V2000
   -0.7245   -1.1822   -0.0079 C   0  0  0  0  0  0
   -2.1153   -1.1935    0.0052 C   0  0  0  0  0  0
   -2.8171    0.0154    0.0002 C   0  0  0  0  0  0
   -2.1147    1.2238   -0.0182 C   0  0  0  0  0  0
   -0.7200    1.2153   -0.0306 C   0  0  0  0  0  0
    0.0018    0.0172   -0.0277 C   0  0  0  0  0  0
    1.5127    0.0133    0.0154 C   0  0  0  0  0  0
    2.0414   -0.0086    1.4513 C   0  0  0  0  0  0
    3.4632   -0.0144    1.3897 O   0  0  0  0  0  0
   -4.1840   -0.0512    0.0098 O   0  0  0  0  0  0
   -0.1878   -2.1277   -0.0074 H   0  0  0  0  0  0
   -2.6745   -2.1231    0.0144 H   0  0  0  0  0  0
   -2.6566    2.1673   -0.0277 H   0  0  0  0  0  0
   -0.1850    2.1617   -0.0475 H   0  0  0  0  0  0
    1.9149   -0.8613   -0.5080 H   0  0  0  0  0  0
    1.9200    0.8989   -0.4848 H   0  0  0  0  0  0
    1.6591    0.8727    1.9924 H   0  0  0  0  0  0
    1.6510   -0.9007    1.9682 H   0  0  0  0  0  0
    3.8032   -0.0333    2.2930 H   0  0  0  0  0  0
   -4.5450    0.8447   -0.0003 H   0  0  0  0  0  0
  1  6  1  0  0  0
  1  2  2  0  0  0
  1 11  1  0  0  0
  2  3  1  0  0  0
  2 12  1  0  0  0
  3  4  2  0  0  0
  3 10  1  0  0  0
  4  5  1  0  0  0
  4 13  1  0  0  0
  5  6  2  0  0  0
  5 14  1  0  0  0
  6  7  1  0  0  0
  7  8  1  0  0  0
  7 15  1  0  0  0
  7 16  1  0  0  0
  8  9  1  0  0  0
  8 17  1  0  0  0
  8 18  1  0  0  0
  9 19  1  0  0  0
 10 20  1  0  0  0
M  END
>  <i_m_Spin_multiplicity> (1)
1

>  <s_j_Task> (1)
Single Point

>  <s_j_QM_Method> (1)
DFT(b3lyp-d3)

>  <s_j_QM_Basis> (1)
cc-pvtz(-f)

>  <i_j_Number_of_canonical_orbitals> (1)
314

>  <i_j_Geometry_convergence_category> (1)
0

>  <r_j_Gas_Phase_Energy> (1)
-461.484197140746

>  <r_j_Final_Energy> (1)
-461.484197140746

>  <r_j_HOMO> (1)
-0.224879471995456

>  <r_j_LUMO> (1)
-0.0166245840149998

>  <r_j_Polarizability> (1)
98.8196300474647

>  <r_j_QM_Dipole_(debye)> (1)
1.91121365221325

>  <r_j_QM_Dipole_X_(debye)> (1)
-0.656802965057835

>  <r_j_QM_Dipole_Y_(debye)> (1)
1.24822371948007

>  <r_j_QM_Dipole_Z_(debye)> (1)
1.28968408365184

>  <r_j_Lowest_Frequency_(cm-1)> (1)
75.233264273554

>  <r_j_Highest_Frequency_(cm-1)> (1)
3772.69237780739

>  <r_j_2nd_Lowest_Frequency_(cm-1)> (1)
85.5572328132817

>  <i_j_Num_Negative_Frequencies> (1)
0

>  <r_j_Zero_Point_Energy_(kcal/mol)> (1)
103.841715188088

>  <r_j_Entropy_(cal/mol/K)_298.15K_1.00E+00atm> (1)
93.1866471397931

>  <r_j_Enthalpy_(kcal/mol)_298.15K_1.00E+00atm> (1)
6.34087029478402

>  <r_j_Free_Energy_(kcal/mol)_298.15K_1.00E+00atm> (1)
-21.4427285499453

>  <r_j_Internal_Energy_(kcal/mol)_298.15K_1.00E+00atm> (1)
5.74838470595674

>  <r_j_Heat_Capacity_(cal/mol/K)_298.15K_1.00E+00atm> (1)
35.5812529378617

>  <r_j_ln(Q)_298.15K_1.00E+00atm> (1)
36.1911394206019

>  <r_j_Total_Internal_Energy_(au)_298.15K_1.00E+00atm> (1)
-461.309554198873

>  <r_j_Total_Enthalpy_(au)_298.15K_1.00E+00atm> (1)
-461.30861001298

>  <r_j_Total_Free_Energy_(au)_298.15K_1.00E+00atm> (1)
-461.352885996329

>  <r_lp_tautomer_probability> (1)
1

>  <r_epik_Ionization_Penalty> (1)
  0.0003

>  <r_epik_Ionization_Penalty_Charging> (1)
  0.0000

>  <r_epik_Ionization_Penalty_Neutral> (1)
  0.0003

>  <r_epik_State_Penalty> (1)
  0.0002

>  <r_epik_Charging_Adjusted_Penalty> (1)
0.000202323

>  <i_epik_Tot_Q> (1)
0

>  <i_epik_Tot_abs_Q> (1)
0

>  <s_lp_Force_Field> (1)
S-OPLS

>  <r_lp_Energy> (1)
7.22022

>  <b_lp_Chiralities_Consistent> (1)
1

$$$$
