10401_Caprolactone
                    3D
 Schrodinger Suite 2021-3.
 18 18  0  0  1  0            999 V2000
    0.6669    1.6831   -0.8017 C   0  0  0  0  0  0
    0.3172    0.4544   -1.6502 C   0  0  0  0  0  0
    0.4899   -0.8923   -0.9143 C   0  0  0  0  0  0
   -0.6717   -1.2393    0.0060 C   0  0  0  0  0  0
   -1.4143   -2.1696   -0.1999 O   0  0  0  0  0  0
   -0.9074   -0.4538    1.0917 O   0  0  0  0  0  0
   -0.0619    0.6567    1.4431 C   0  0  0  0  0  0
   -0.1676    1.8361    0.4761 C   0  0  0  0  0  0
    0.5572    2.5860   -1.4137 H   0  0  0  0  0  0
    1.7290    1.6273   -0.5232 H   0  0  0  0  0  0
   -0.7127    0.5314   -2.0215 H   0  0  0  0  0  0
    0.9630    0.4427   -2.5352 H   0  0  0  0  0  0
    0.5382   -1.7132   -1.6316 H   0  0  0  0  0  0
    1.4325   -0.8906   -0.3516 H   0  0  0  0  0  0
   -0.4219    0.9457    2.4330 H   0  0  0  0  0  0
    0.9794    0.3254    1.5531 H   0  0  0  0  0  0
    0.1565    2.7385    1.0093 H   0  0  0  0  0  0
   -1.2281    1.9769    0.2331 H   0  0  0  0  0  0
  1  8  1  0  0  0
  1  2  1  0  0  0
  1  9  1  0  0  0
  1 10  1  0  0  0
  2  3  1  0  0  0
  2 11  1  0  0  0
  2 12  1  0  0  0
  3  4  1  0  0  0
  3 13  1  0  0  0
  3 14  1  0  0  0
  4  5  2  0  0  0
  4  6  1  0  0  0
  6  7  1  0  0  0
  7  8  1  0  0  0
  7 15  1  0  0  0
  7 16  1  0  0  0
  8 17  1  0  0  0
  8 18  1  0  0  0
M  END
>  <i_m_Spin_multiplicity> (1)
1

>  <s_j_Task> (1)
Single Point

>  <s_j_QM_Method> (1)
DFT(b3lyp-d3)

>  <s_j_QM_Basis> (1)
cc-pvtz(-f)

>  <i_j_Number_of_canonical_orbitals> (1)
273

>  <i_j_Geometry_convergence_category> (1)
3

>  <r_j_Gas_Phase_Energy> (1)
-385.263891711796

>  <r_j_Final_Energy> (1)
-385.263891711796

>  <r_j_HOMO> (1)
-0.272560421083509

>  <r_j_LUMO> (1)
-0.00102092168686441

>  <r_j_Polarizability> (1)
73.4916768593264

>  <r_j_QM_Dipole_(debye)> (1)
4.73616828096734

>  <r_j_QM_Dipole_X_(debye)> (1)
3.09039334197521

>  <r_j_QM_Dipole_Y_(debye)> (1)
3.580142175719

>  <r_j_QM_Dipole_Z_(debye)> (1)
-0.25167633809013

>  <r_j_Lowest_Frequency_(cm-1)> (1)
111.867366787672

>  <r_j_Highest_Frequency_(cm-1)> (1)
3075.93583149266

>  <r_j_2nd_Lowest_Frequency_(cm-1)> (1)
198.826824464981

>  <i_j_Num_Negative_Frequencies> (1)
0

>  <r_j_Zero_Point_Energy_(kcal/mol)> (1)
97.856000302537

>  <r_j_Entropy_(cal/mol/K)_298.15K_1.00E+00atm> (1)
82.3261727615161

>  <r_j_Enthalpy_(kcal/mol)_298.15K_1.00E+00atm> (1)
4.99085635147467

>  <r_j_Free_Energy_(kcal/mol)_298.15K_1.00E+00atm> (1)
-19.5546920573714

>  <r_j_Internal_Energy_(kcal/mol)_298.15K_1.00E+00atm> (1)
4.3983707626474

>  <r_j_Heat_Capacity_(cal/mol/K)_298.15K_1.00E+00atm> (1)
27.3559011138682

>  <r_j_ln(Q)_298.15K_1.00E+00atm> (1)
33.0045024319943

>  <r_j_Total_Internal_Energy_(au)_298.15K_1.00E+00atm> (1)
-385.100938998007

>  <r_j_Total_Enthalpy_(au)_298.15K_1.00E+00atm> (1)
-385.099994812115

>  <r_j_Total_Free_Energy_(au)_298.15K_1.00E+00atm> (1)
-385.1391106336

>  <r_lp_tautomer_probability> (1)
1

>  <r_epik_Ionization_Penalty> (1)
  0.0000

>  <r_epik_Ionization_Penalty_Charging> (1)
  0.0000

>  <r_epik_Ionization_Penalty_Neutral> (1)
  0.0000

>  <r_epik_State_Penalty> (1)
  0.0000

>  <r_epik_Charging_Adjusted_Penalty> (1)
0

>  <i_epik_Tot_Q> (1)
0

>  <i_epik_Tot_abs_Q> (1)
0

>  <s_lp_Force_Field> (1)
S-OPLS

>  <r_lp_Energy> (1)
8.03895

>  <b_lp_Chiralities_Consistent> (1)
1

>  <s_epik_Chemistry_Notes> (1)
This compound has an ester and may undergo hydrolysis at high or low pH.

$$$$
