10446_Neophytadiene
                    3D
 Schrodinger Suite 2021-3.
 58 57  0  0  1  0            999 V2000
   -4.2217    0.1312    3.9234 C   0  0  0  0  0  0
   -4.7736    1.2134    2.9839 C   0  0  0  0  0  0
   -6.2981    1.3233    3.1276 C   0  0  0  0  0  0
   -4.3855    0.9683    1.5133 C   0  0  0  0  0  0
   -2.8769    0.9654    1.2369 C   0  0  0  0  0  0
   -2.5361    0.9465   -0.2588 C   0  0  0  0  0  0
   -1.0233    0.9244   -0.5538 C   0  0  0  0  0  0
   -0.7417    1.3967   -1.9880 C   0  0  0  0  0  0
   -0.3978   -0.4660   -0.3049 C   0  0  0  0  0  0
    1.1009   -0.4135    0.0204 C   0  0  0  0  0  0
    1.7776   -1.7906   -0.0129 C   0  0  0  0  0  0
    3.1705   -1.8418    0.6475 C   0  0  0  0  0  0
    4.0958   -0.7253    0.1385 C   0  0  0  0  0  0
    3.8570   -3.2055    0.4416 C   0  0  0  0  0  0
    3.0478   -4.4321    0.8778 C   0  0  0  0  0  0
    3.8715   -5.7357    0.8241 C   0  0  0  0  0  0
    4.4620   -6.0118   -0.5447 C   0  0  0  0  0  0
    5.7838   -6.1249   -0.7421 C   0  0  0  0  0  0
    3.4918   -6.1443   -1.6517 C   0  0  0  0  0  0
    3.6674   -5.6860   -2.8961 C   0  0  0  0  0  0
   -4.5968   -0.8588    3.6347 H   0  0  0  0  0  0
   -4.5317    0.3150    4.9579 H   0  0  0  0  0  0
   -3.1284    0.0920    3.9084 H   0  0  0  0  0  0
   -4.3352    2.1774    3.2845 H   0  0  0  0  0  0
   -6.7840    0.3816    2.8428 H   0  0  0  0  0  0
   -6.7046    2.1140    2.4874 H   0  0  0  0  0  0
   -6.5860    1.5456    4.1610 H   0  0  0  0  0  0
   -4.8207    0.0138    1.1813 H   0  0  0  0  0  0
   -4.8564    1.7460    0.8953 H   0  0  0  0  0  0
   -2.4256    1.8603    1.6898 H   0  0  0  0  0  0
   -2.4097    0.1069    1.7340 H   0  0  0  0  0  0
   -3.0113    0.0792   -0.7409 H   0  0  0  0  0  0
   -2.9826    1.8340   -0.7283 H   0  0  0  0  0  0
   -0.5442    1.6369    0.1358 H   0  0  0  0  0  0
   -1.2707    0.7632   -2.7105 H   0  0  0  0  0  0
    0.3255    1.3531   -2.2296 H   0  0  0  0  0  0
   -1.0763    2.4283   -2.1408 H   0  0  0  0  0  0
   -0.9131   -0.9752    0.5196 H   0  0  0  0  0  0
   -0.5656   -1.0924   -1.1935 H   0  0  0  0  0  0
    1.6075    0.2601   -0.6811 H   0  0  0  0  0  0
    1.2274    0.0376    1.0153 H   0  0  0  0  0  0
    1.1220   -2.5161    0.4854 H   0  0  0  0  0  0
    1.8607   -2.1259   -1.0577 H   0  0  0  0  0  0
    3.0253   -1.6936    1.7295 H   0  0  0  0  0  0
    4.2095   -0.7848   -0.9512 H   0  0  0  0  0  0
    5.0942   -0.8136    0.5808 H   0  0  0  0  0  0
    3.7137    0.2705    0.3807 H   0  0  0  0  0  0
    4.1153   -3.3131   -0.6205 H   0  0  0  0  0  0
    4.8140   -3.2013    0.9824 H   0  0  0  0  0  0
    2.6715   -4.2916    1.8999 H   0  0  0  0  0  0
    2.1659   -4.5419    0.2356 H   0  0  0  0  0  0
    4.6767   -5.6938    1.5668 H   0  0  0  0  0  0
    3.2223   -6.5761    1.1100 H   0  0  0  0  0  0
    6.4912   -5.9930    0.0713 H   0  0  0  0  0  0
    6.1940   -6.3663   -1.7179 H   0  0  0  0  0  0
    2.5467   -6.6277   -1.3987 H   0  0  0  0  0  0
    4.5677   -5.1479   -3.1794 H   0  0  0  0  0  0
    2.9156   -5.8298   -3.6661 H   0  0  0  0  0  0
  1  2  1  0  0  0
  1 21  1  0  0  0
  1 22  1  0  0  0
  1 23  1  0  0  0
  2  3  1  0  0  0
  2  4  1  0  0  0
  2 24  1  0  0  0
  3 25  1  0  0  0
  3 26  1  0  0  0
  3 27  1  0  0  0
  4  5  1  0  0  0
  4 28  1  0  0  0
  4 29  1  0  0  0
  5  6  1  0  0  0
  5 30  1  0  0  0
  5 31  1  0  0  0
  6  7  1  0  0  0
  6 32  1  0  0  0
  6 33  1  0  0  0
  7  8  1  0  0  0
  7  9  1  0  0  0
  7 34  1  0  0  0
  8 35  1  0  0  0
  8 36  1  0  0  0
  8 37  1  0  0  0
  9 10  1  0  0  0
  9 38  1  0  0  0
  9 39  1  0  0  0
 10 11  1  0  0  0
 10 40  1  0  0  0
 10 41  1  0  0  0
 11 12  1  0  0  0
 11 42  1  0  0  0
 11 43  1  0  0  0
 12 13  1  0  0  0
 12 14  1  0  0  0
 12 44  1  0  0  0
 13 45  1  0  0  0
 13 46  1  0  0  0
 13 47  1  0  0  0
 14 15  1  0  0  0
 14 48  1  0  0  0
 14 49  1  0  0  0
 15 16  1  0  0  0
 15 50  1  0  0  0
 15 51  1  0  0  0
 16 17  1  0  0  0
 16 52  1  0  0  0
 16 53  1  0  0  0
 17 18  2  0  0  0
 17 19  1  0  0  0
 18 54  1  0  0  0
 18 55  1  0  0  0
 19 20  2  0  0  0
 19 56  1  0  0  0
 20 57  1  0  0  0
 20 58  1  0  0  0
M  END
>  <i_m_Spin_multiplicity> (1)
1

>  <s_j_Task> (1)
Single Point

>  <s_j_QM_Method> (1)
DFT(b3lyp-d3)

>  <s_j_QM_Basis> (1)
cc-pvtz(-f)

>  <i_j_Number_of_canonical_orbitals> (1)
795

>  <i_j_Geometry_convergence_category> (1)
4

>  <r_j_Gas_Phase_Energy> (1)
-785.322792479956

>  <r_j_Final_Energy> (1)
-785.322792479956

>  <r_j_HOMO> (1)
-0.263353393524477

>  <r_j_LUMO> (1)
-0.0553596824920342

>  <r_j_Polarizability> (1)
242.166725272258

>  <r_j_QM_Dipole_(debye)> (1)
0.425370898979453

>  <r_j_QM_Dipole_X_(debye)> (1)
-0.240510972869282

>  <r_j_QM_Dipole_Y_(debye)> (1)
0.155590360319575

>  <r_j_QM_Dipole_Z_(debye)> (1)
0.314462260698616

>  <r_j_Lowest_Frequency_(cm-1)> (1)
29.5537200737886

>  <r_j_Highest_Frequency_(cm-1)> (1)
3179.56821140146

>  <r_j_2nd_Lowest_Frequency_(cm-1)> (1)
38.5543020793562

>  <i_j_Num_Negative_Frequencies> (1)
0

>  <r_j_Zero_Point_Energy_(kcal/mol)> (1)
338.474915890265

>  <r_j_Entropy_(cal/mol/K)_298.15K_1.00E+00atm> (1)
157.946488805496

>  <r_j_Enthalpy_(kcal/mol)_298.15K_1.00E+00atm> (1)
15.4538951666573

>  <r_j_Free_Energy_(kcal/mol)_298.15K_1.00E+00atm> (1)
-31.6378504707012

>  <r_j_Internal_Energy_(kcal/mol)_298.15K_1.00E+00atm> (1)
14.86140957783

>  <r_j_Heat_Capacity_(cal/mol/K)_298.15K_1.00E+00atm> (1)
93.3365205305569

>  <r_j_ln(Q)_298.15K_1.00E+00atm> (1)
53.3985147779257

>  <r_j_Total_Internal_Energy_(au)_298.15K_1.00E+00atm> (1)
-784.759715200073

>  <r_j_Total_Enthalpy_(au)_298.15K_1.00E+00atm> (1)
-784.758771014181

>  <r_j_Total_Free_Energy_(au)_298.15K_1.00E+00atm> (1)
-784.833816488215

>  <r_lp_tautomer_probability> (1)
1

>  <r_epik_Ionization_Penalty> (1)
  0.0000

>  <r_epik_Ionization_Penalty_Charging> (1)
  0.0000

>  <r_epik_Ionization_Penalty_Neutral> (1)
  0.0000

>  <r_epik_State_Penalty> (1)
  0.0000

>  <r_epik_Charging_Adjusted_Penalty> (1)
0

>  <i_epik_Tot_Q> (1)
0

>  <i_epik_Tot_abs_Q> (1)
0

>  <s_lp_Force_Field> (1)
S-OPLS

>  <r_lp_Energy> (1)
11.822073

>  <b_lp_Chiralities_Consistent> (1)
1

$$$$
