10442_1,3-Propandiol
                    3D
 Schrodinger Suite 2021-3.
 13 12  0  0  1  0            999 V2000
    0.0242    0.0343    0.0000 C   0  0  0  0  0  0
    1.5462   -0.0101    0.0001 C   0  0  0  0  0  0
    1.9360   -1.3791   -0.0003 O   0  0  0  0  0  0
   -0.5249    1.4544   -0.0001 C   0  0  0  0  0  0
   -1.9455    1.3656    0.0003 O   0  0  0  0  0  0
   -0.3513   -0.4970   -0.8809 H   0  0  0  0  0  0
   -0.3515   -0.4968    0.8810 H   0  0  0  0  0  0
    1.9359    0.5186   -0.8868 H   0  0  0  0  0  0
    1.9357    0.5179    0.8875 H   0  0  0  0  0  0
    2.9006   -1.4163   -0.0001 H   0  0  0  0  0  0
   -0.1564    1.9980    0.8868 H   0  0  0  0  0  0
   -0.1568    1.9977   -0.8874 H   0  0  0  0  0  0
   -2.3021    2.2626    0.0001 H   0  0  0  0  0  0
  1  2  1  0  0  0
  1  4  1  0  0  0
  1  6  1  0  0  0
  1  7  1  0  0  0
  2  3  1  0  0  0
  2  8  1  0  0  0
  2  9  1  0  0  0
  3 10  1  0  0  0
  4  5  1  0  0  0
  4 11  1  0  0  0
  4 12  1  0  0  0
  5 13  1  0  0  0
M  END
>  <i_m_Spin_multiplicity> (1)
1

>  <s_j_Task> (1)
Single Point

>  <s_j_QM_Method> (1)
DFT(b3lyp-d3)

>  <s_j_QM_Basis> (1)
cc-pvtz(-f)

>  <i_j_Number_of_canonical_orbitals> (1)
187

>  <i_j_Geometry_convergence_category> (1)
0

>  <r_j_Gas_Phase_Energy> (1)
-269.674476785417

>  <r_j_Final_Energy> (1)
-269.674476785417

>  <r_j_HOMO> (1)
-0.268391628691398

>  <r_j_LUMO> (1)
0.0261918118218421

>  <r_j_Polarizability> (1)
46.7887731042131

>  <r_j_QM_Dipole_(debye)> (1)
2.92634402199749

>  <r_j_QM_Dipole_X_(debye)> (1)
1.689511285959

>  <r_j_QM_Dipole_Y_(debye)> (1)
2.3893599454539

>  <r_j_QM_Dipole_Z_(debye)> (1)
2.75349952861707e-05

>  <r_j_Lowest_Frequency_(cm-1)> (1)
129.295452947332

>  <r_j_Highest_Frequency_(cm-1)> (1)
3774.01735629222

>  <r_j_2nd_Lowest_Frequency_(cm-1)> (1)
147.722074368295

>  <i_j_Num_Negative_Frequencies> (1)
0

>  <r_j_Zero_Point_Energy_(kcal/mol)> (1)
71.1793966478928

>  <r_j_Entropy_(cal/mol/K)_298.15K_1.00E+00atm> (1)
77.254115838512

>  <r_j_Enthalpy_(kcal/mol)_298.15K_1.00E+00atm> (1)
4.55570361333523

>  <r_j_Free_Energy_(kcal/mol)_298.15K_1.00E+00atm> (1)
-18.4776110239171

>  <r_j_Internal_Energy_(kcal/mol)_298.15K_1.00E+00atm> (1)
3.96321802450795

>  <r_j_Heat_Capacity_(cal/mol/K)_298.15K_1.00E+00atm> (1)
21.4165773217918

>  <r_j_ln(Q)_298.15K_1.00E+00atm> (1)
31.1865999314691

>  <r_j_Total_Internal_Energy_(au)_298.15K_1.00E+00atm> (1)
-269.554729405872

>  <r_j_Total_Enthalpy_(au)_298.15K_1.00E+00atm> (1)
-269.55378521998

>  <r_j_Total_Free_Energy_(au)_298.15K_1.00E+00atm> (1)
-269.590491143537

>  <r_lp_tautomer_probability> (1)
1

>  <r_epik_Ionization_Penalty> (1)
  0.0000

>  <r_epik_Ionization_Penalty_Charging> (1)
  0.0000

>  <r_epik_Ionization_Penalty_Neutral> (1)
  0.0000

>  <r_epik_State_Penalty> (1)
  0.0000

>  <r_epik_Charging_Adjusted_Penalty> (1)
0

>  <i_epik_Tot_Q> (1)
0

>  <i_epik_Tot_abs_Q> (1)
0

>  <s_lp_Force_Field> (1)
S-OPLS

>  <r_lp_Energy> (1)
2.12018

>  <b_lp_Chiralities_Consistent> (1)
1

$$$$
