10457_Octanedioic acid
                    3D
 Schrodinger Suite 2021-3.
 24 23  0  0  1  0            999 V2000
   -0.0170    0.0474   -0.0178 C   0  0  0  0  0  0
    1.5170   -0.0475   -0.0177 C   0  0  0  0  0  0
    2.0709   -1.4810   -0.0195 C   0  0  0  0  0  0
    3.5991   -1.5695   -0.0189 C   0  0  0  0  0  0
    4.2057   -3.0243   -0.0077 C   0  0  0  0  0  0
    5.4638   -3.0642   -0.0485 O   0  0  0  0  0  0
    3.3816   -3.9743    0.0440 O   0  5  0  0  0  0
   -0.5709    1.4809   -0.0194 C   0  0  0  0  0  0
   -2.0991    1.5694   -0.0191 C   0  0  0  0  0  0
   -2.7056    3.0243   -0.0078 C   0  0  0  0  0  0
   -3.9637    3.0643   -0.0485 O   0  0  0  0  0  0
   -1.8814    3.9742    0.0439 O   0  5  0  0  0  0
   -0.4076   -0.4961   -0.8928 H   0  0  0  0  0  0
   -0.4077   -0.4939    0.8585 H   0  0  0  0  0  0
    1.9077    0.4961   -0.8925 H   0  0  0  0  0  0
    1.9074    0.4936    0.8588 H   0  0  0  0  0  0
    1.6881   -2.0340    0.8483 H   0  0  0  0  0  0
    1.6866   -2.0293   -0.8901 H   0  0  0  0  0  0
    4.0121   -1.0438   -0.8939 H   0  0  0  0  0  0
    4.0088   -1.0340    0.8522 H   0  0  0  0  0  0
   -0.1882    2.0337    0.8486 H   0  0  0  0  0  0
   -0.1865    2.0293   -0.8899 H   0  0  0  0  0  0
   -2.5120    1.0440   -0.8942 H   0  0  0  0  0  0
   -2.5090    1.0339    0.8519 H   0  0  0  0  0  0
  1  2  1  0  0  0
  1  8  1  0  0  0
  1 13  1  0  0  0
  1 14  1  0  0  0
  2  3  1  0  0  0
  2 15  1  0  0  0
  2 16  1  0  0  0
  3  4  1  0  0  0
  3 17  1  0  0  0
  3 18  1  0  0  0
  4  5  1  0  0  0
  4 19  1  0  0  0
  4 20  1  0  0  0
  5  6  2  0  0  0
  5  7  1  0  0  0
  8  9  1  0  0  0
  8 21  1  0  0  0
  8 22  1  0  0  0
  9 10  1  0  0  0
  9 23  1  0  0  0
  9 24  1  0  0  0
 10 11  2  0  0  0
 10 12  1  0  0  0
M  END
>  <i_m_Spin_multiplicity> (1)
1

>  <s_j_Task> (1)
Single Point

>  <s_j_QM_Method> (1)
DFT(b3lyp-d3)

>  <s_j_QM_Basis> (1)
cc-pvtz(-f)

>  <i_j_Number_of_canonical_orbitals> (1)
382

>  <i_j_Geometry_convergence_category> (1)
0

>  <r_j_Gas_Phase_Energy> (1)
-613.267877337112

>  <r_j_Final_Energy> (1)
-613.267877337112

>  <r_j_HOMO> (1)
0.0492795780315745

>  <r_j_LUMO> (1)
0.239412357532948

>  <r_j_Polarizability> (1)
116.239929662301

>  <r_j_QM_Dipole_(debye)> (1)
0.0520097006591821

>  <r_j_QM_Dipole_X_(debye)> (1)
-0.000518994866362912

>  <r_j_QM_Dipole_Y_(debye)> (1)
9.28434275839043e-05

>  <r_j_QM_Dipole_Z_(debye)> (1)
-0.0520070282470011

>  <r_j_Lowest_Frequency_(cm-1)> (1)
48.2837581063453

>  <r_j_Highest_Frequency_(cm-1)> (1)
3007.79754919568

>  <r_j_2nd_Lowest_Frequency_(cm-1)> (1)
63.553327696669

>  <i_j_Num_Negative_Frequencies> (1)
0

>  <r_j_Zero_Point_Energy_(kcal/mol)> (1)
120.283704932993

>  <r_j_Entropy_(cal/mol/K)_298.15K_1.00E+00atm> (1)
111.515233239666

>  <r_j_Enthalpy_(kcal/mol)_298.15K_1.00E+00atm> (1)
8.45590291279407

>  <r_j_Free_Energy_(kcal/mol)_298.15K_1.00E+00atm> (1)
-24.7923638776123

>  <r_j_Internal_Energy_(kcal/mol)_298.15K_1.00E+00atm> (1)
7.86341732396679

>  <r_j_Heat_Capacity_(cal/mol/K)_298.15K_1.00E+00atm> (1)
44.8127956565118

>  <r_j_ln(Q)_298.15K_1.00E+00atm> (1)
41.8446698875573

>  <r_j_Total_Internal_Energy_(au)_298.15K_1.00E+00atm> (1)
-613.063661897531

>  <r_j_Total_Enthalpy_(au)_298.15K_1.00E+00atm> (1)
-613.062717711639

>  <r_j_Total_Free_Energy_(au)_298.15K_1.00E+00atm> (1)
-613.115702197738

>  <r_epik_Ionization_Penalty> (1)
  0.0098

>  <r_epik_Ionization_Penalty_Charging> (1)
  0.0098

>  <r_epik_Ionization_Penalty_Neutral> (1)
  0.0000

>  <r_epik_State_Penalty> (1)
  0.0075

>  <r_epik_Charging_Adjusted_Penalty> (1)
0.017348229040365

>  <i_epik_Tot_Q> (1)
-2

>  <i_epik_Tot_abs_Q> (1)
2

>  <s_lp_Force_Field> (1)
S-OPLS

>  <r_lp_Energy> (1)
10.185536

>  <b_lp_Chiralities_Consistent> (1)
1

$$$$
