104556_Hexahydro-1,3,5-tris(2-hydroxyethyl)-s-triazine
                    3D
 Schrodinger Suite 2021-3.
 36 36  0  0  1  0            999 V2000
   -0.2592    1.0496    0.0861 C   0  0  0  0  0  0
    0.1972   -0.3046   -0.2257 N   0  0  0  0  0  0
   -0.3735   -0.7297   -1.4907 C   0  0  0  0  0  0
   -0.0722    0.2318   -2.5769 N   0  0  0  0  0  0
   -0.6412    1.5415   -2.2087 C   0  0  0  0  0  0
   -0.0722    2.0472   -0.9727 N   0  0  0  0  0  0
    1.2934    2.5562   -1.1373 C   0  0  0  0  0  0
    1.3096    4.0287   -1.5295 C   0  0  0  0  0  0
    0.9051    4.7936   -0.4016 O   0  0  0  0  0  0
   -0.5101   -0.2225   -3.8923 C   0  0  0  0  0  0
    0.4502   -1.2111   -4.5438 C   0  0  0  0  0  0
    0.3313   -2.4825   -3.9056 O   0  0  0  0  0  0
    1.6431   -0.5328   -0.1463 C   0  0  0  0  0  0
    1.9723   -1.9399    0.3371 C   0  0  0  0  0  0
    1.6475   -2.0240    1.7190 O   0  0  0  0  0  0
    0.2244    1.3979    1.0014 H   0  0  0  0  0  0
   -1.3390    0.9879    0.2760 H   0  0  0  0  0  0
    0.0125   -1.7072   -1.7766 H   0  0  0  0  0  0
   -1.4696   -0.8267   -1.3609 H   0  0  0  0  0  0
   -0.4484    2.2500   -3.0220 H   0  0  0  0  0  0
   -1.7396    1.4781   -2.0781 H   0  0  0  0  0  0
    1.8230    2.4714   -0.1835 H   0  0  0  0  0  0
    1.8626    1.9734   -1.8782 H   0  0  0  0  0  0
    2.3301    4.2973   -1.8536 H   0  0  0  0  0  0
    0.6410    4.1914   -2.3910 H   0  0  0  0  0  0
    0.7900    5.7090   -0.6845 H   0  0  0  0  0  0
   -1.5222   -0.6700   -3.8772 H   0  0  0  0  0  0
   -0.5648    0.6533   -4.5515 H   0  0  0  0  0  0
    0.2024   -1.2910   -5.6153 H   0  0  0  0  0  0
    1.4709   -0.8097   -4.4553 H   0  0  0  0  0  0
    1.0193   -3.0609   -4.2573 H   0  0  0  0  0  0
    2.1415   -0.3550   -1.1123 H   0  0  0  0  0  0
    2.0755    0.1664    0.5763 H   0  0  0  0  0  0
    1.4100   -2.6767   -0.2587 H   0  0  0  0  0  0
    3.0460   -2.1311    0.1645 H   0  0  0  0  0  0
    1.6948   -2.9508    1.9829 H   0  0  0  0  0  0
  1  6  1  0  0  0
  1  2  1  0  0  0
  1 16  1  0  0  0
  1 17  1  0  0  0
  2  3  1  0  0  0
  2 13  1  0  0  0
  3  4  1  0  0  0
  3 18  1  0  0  0
  3 19  1  0  0  0
  4  5  1  0  0  0
  4 10  1  0  0  0
  5  6  1  0  0  0
  5 20  1  0  0  0
  5 21  1  0  0  0
  6  7  1  0  0  0
  7  8  1  0  0  0
  7 22  1  0  0  0
  7 23  1  0  0  0
  8  9  1  0  0  0
  8 24  1  0  0  0
  8 25  1  0  0  0
  9 26  1  0  0  0
 10 11  1  0  0  0
 10 27  1  0  0  0
 10 28  1  0  0  0
 11 12  1  0  0  0
 11 29  1  0  0  0
 11 30  1  0  0  0
 12 31  1  0  0  0
 13 14  1  0  0  0
 13 32  1  0  0  0
 13 33  1  0  0  0
 14 15  1  0  0  0
 14 34  1  0  0  0
 14 35  1  0  0  0
 15 36  1  0  0  0
M  END
>  <i_m_Spin_multiplicity> (1)
1

>  <s_j_Task> (1)
Single Point

>  <s_j_QM_Method> (1)
DFT(b3lyp-d3)

>  <s_j_QM_Basis> (1)
cc-pvtz(-f)

>  <i_j_Number_of_canonical_orbitals> (1)
531

>  <i_j_Geometry_convergence_category> (1)
0

>  <r_j_Gas_Phase_Energy> (1)
-745.75369642204

>  <r_j_Final_Energy> (1)
-745.75369642204

>  <r_j_HOMO> (1)
-0.187943073116701

>  <r_j_LUMO> (1)
0.0182289570367409

>  <r_j_Polarizability> (1)
143.787197393267

>  <r_j_QM_Dipole_(debye)> (1)
4.18814971852931

>  <r_j_QM_Dipole_X_(debye)> (1)
1.57913843562413

>  <r_j_QM_Dipole_Y_(debye)> (1)
-0.727803606677283

>  <r_j_QM_Dipole_Z_(debye)> (1)
-3.81014721186193

>  <r_j_Lowest_Frequency_(cm-1)> (1)
41.920300193123

>  <r_j_Highest_Frequency_(cm-1)> (1)
3779.40243353159

>  <r_j_2nd_Lowest_Frequency_(cm-1)> (1)
52.192657191475

>  <i_j_Num_Negative_Frequencies> (1)
0

>  <r_j_Zero_Point_Energy_(kcal/mol)> (1)
200.323781179857

>  <r_j_Entropy_(cal/mol/K)_298.15K_1.00E+00atm> (1)
123.695639521471

>  <r_j_Enthalpy_(kcal/mol)_298.15K_1.00E+00atm> (1)
10.493429693415

>  <r_j_Free_Energy_(kcal/mol)_298.15K_1.00E+00atm> (1)
-26.3864252299115

>  <r_j_Internal_Energy_(kcal/mol)_298.15K_1.00E+00atm> (1)
9.90094410458775

>  <r_j_Heat_Capacity_(cal/mol/K)_298.15K_1.00E+00atm> (1)
60.973966773171

>  <r_j_ln(Q)_298.15K_1.00E+00atm> (1)
44.5351342336259

>  <r_j_Total_Internal_Energy_(au)_298.15K_1.00E+00atm> (1)
-745.418681995429

>  <r_j_Total_Enthalpy_(au)_298.15K_1.00E+00atm> (1)
-745.417737809537

>  <r_j_Total_Free_Energy_(au)_298.15K_1.00E+00atm> (1)
-745.476509599744

>  <r_epik_Ionization_Penalty> (1)
  0.1542

>  <r_epik_Ionization_Penalty_Charging> (1)
  0.0000

>  <r_epik_Ionization_Penalty_Neutral> (1)
  0.1542

>  <r_epik_State_Penalty> (1)
  0.1435

>  <r_epik_Charging_Adjusted_Penalty> (1)
0.143457713088755

>  <i_epik_Tot_Q> (1)
0

>  <i_epik_Tot_abs_Q> (1)
0

>  <s_lp_Force_Field> (1)
S-OPLS

>  <r_lp_Energy> (1)
6.600806

>  <b_lp_Chiralities_Consistent> (1)
1

>  <s_epik_Chemistry_Notes> (1)
This compound contains an acetal/aminal-like group ( X-CH(R)-Y where X, Y are N, S, or O) that may be acid/base labile, releasing an aldehyde.

$$$$
