10468_Pentacosanoic acid
                    3D
 Schrodinger Suite 2021-3.
 76 75  0  0  1  0            999 V2000
  -10.3401    8.4595   -2.6568 C   0  0  0  0  0  0
   -9.4774    7.3005   -2.1483 C   0  0  0  0  0  0
   -9.4594    7.1983   -0.6165 C   0  0  0  0  0  0
   -8.6771    5.9934   -0.0711 C   0  0  0  0  0  0
   -7.1643    6.0457   -0.3237 C   0  0  0  0  0  0
   -6.4240    4.8157    0.2141 C   0  0  0  0  0  0
   -4.9097    4.8559   -0.0233 C   0  0  0  0  0  0
   -4.1976    3.5698    0.4110 C   0  0  0  0  0  0
   -2.6816    3.5912    0.1816 C   0  0  0  0  0  0
   -2.0105    2.2496    0.4970 C   0  0  0  0  0  0
   -0.4931    2.2413    0.2763 C   0  0  0  0  0  0
    0.1260    0.8507    0.4588 C   0  0  0  0  0  0
    1.6446    0.8056    0.2508 C   0  0  0  0  0  0
    2.2056   -0.6208    0.2901 C   0  0  0  0  0  0
    3.7254   -0.7053    0.1045 C   0  0  0  0  0  0
    4.2296   -2.1493   -0.0047 C   0  0  0  0  0  0
    5.7508   -2.2719   -0.1508 C   0  0  0  0  0  0
    6.2067   -3.7154   -0.4057 C   0  0  0  0  0  0
    7.7279   -3.8913   -0.5361 C   0  0  0  0  0  0
    8.5015   -3.7107    0.7763 C   0  0  0  0  0  0
   10.0130   -3.9264    0.6218 C   0  0  0  0  0  0
   10.7884   -3.8825    1.9492 C   0  0  0  0  0  0
   10.7212   -2.5404    2.6891 C   0  0  0  0  0  0
   11.5304   -2.4924    3.9851 C   0  0  0  0  0  0
   11.2390   -1.2144    4.8674 C   0  0  0  0  0  0
   12.1732   -0.8771    5.6334 O   0  0  0  0  0  0
   10.0942   -0.7095    4.7216 O   0  5  0  0  0  0
  -10.3392    8.5131   -3.7507 H   0  0  0  0  0  0
   -9.9737    9.4198   -2.2757 H   0  0  0  0  0  0
  -11.3805    8.3508   -2.3284 H   0  0  0  0  0  0
   -9.8487    6.3541   -2.5658 H   0  0  0  0  0  0
   -8.4547    7.4187   -2.5266 H   0  0  0  0  0  0
   -9.0431    8.1254   -0.1963 H   0  0  0  0  0  0
  -10.4964    7.1425   -0.2572 H   0  0  0  0  0  0
   -8.8505    5.9129    1.0107 H   0  0  0  0  0  0
   -9.0848    5.0718   -0.5115 H   0  0  0  0  0  0
   -6.9664    6.1331   -1.4000 H   0  0  0  0  0  0
   -6.7513    6.9554    0.1360 H   0  0  0  0  0  0
   -6.6217    4.7088    1.2903 H   0  0  0  0  0  0
   -6.8393    3.9140   -0.2592 H   0  0  0  0  0  0
   -4.7145    5.0316   -1.0911 H   0  0  0  0  0  0
   -4.4779    5.7158    0.5084 H   0  0  0  0  0  0
   -4.4023    3.3780    1.4741 H   0  0  0  0  0  0
   -4.6319    2.7207   -0.1365 H   0  0  0  0  0  0
   -2.4766    3.8587   -0.8651 H   0  0  0  0  0  0
   -2.2285    4.3857    0.7914 H   0  0  0  0  0  0
   -2.2282    1.9663    1.5369 H   0  0  0  0  0  0
   -2.4680    1.4691   -0.1285 H   0  0  0  0  0  0
   -0.2709    2.6041   -0.7377 H   0  0  0  0  0  0
   -0.0166    2.9539    0.9643 H   0  0  0  0  0  0
   -0.1139    0.4721    1.4628 H   0  0  0  0  0  0
   -0.3531    0.1554   -0.2461 H   0  0  0  0  0  0
    1.8938    1.2644   -0.7170 H   0  0  0  0  0  0
    2.1400    1.4211    1.0147 H   0  0  0  0  0  0
    1.9307   -1.0953    1.2431 H   0  0  0  0  0  0
    1.7138   -1.2155   -0.4940 H   0  0  0  0  0  0
    4.0140   -0.1529   -0.8016 H   0  0  0  0  0  0
    4.2275   -0.1999    0.9408 H   0  0  0  0  0  0
    3.9056   -2.7162    0.8800 H   0  0  0  0  0  0
    3.7416   -2.6311   -0.8656 H   0  0  0  0  0  0
    6.0915   -1.6372   -0.9821 H   0  0  0  0  0  0
    6.2340   -1.8766    0.7509 H   0  0  0  0  0  0
    5.8389   -4.3594    0.4068 H   0  0  0  0  0  0
    5.7180   -4.0764   -1.3225 H   0  0  0  0  0  0
    7.9363   -4.8952   -0.9333 H   0  0  0  0  0  0
    8.1110   -3.1854   -1.2882 H   0  0  0  0  0  0
    8.3214   -2.7123    1.1883 H   0  0  0  0  0  0
    8.1111   -4.4195    1.5219 H   0  0  0  0  0  0
   10.1835   -4.8945    0.1249 H   0  0  0  0  0  0
   10.4141   -3.1606   -0.0590 H   0  0  0  0  0  0
   10.4092   -4.6786    2.6090 H   0  0  0  0  0  0
   11.8399   -4.1374    1.7504 H   0  0  0  0  0  0
   11.0615   -1.7401    2.0135 H   0  0  0  0  0  0
    9.6925   -2.2789    2.9595 H   0  0  0  0  0  0
   11.2801   -3.3743    4.5982 H   0  0  0  0  0  0
   12.6094   -2.5534    3.7905 H   0  0  0  0  0  0
  1  2  1  0  0  0
  1 28  1  0  0  0
  1 29  1  0  0  0
  1 30  1  0  0  0
  2  3  1  0  0  0
  2 31  1  0  0  0
  2 32  1  0  0  0
  3  4  1  0  0  0
  3 33  1  0  0  0
  3 34  1  0  0  0
  4  5  1  0  0  0
  4 35  1  0  0  0
  4 36  1  0  0  0
  5  6  1  0  0  0
  5 37  1  0  0  0
  5 38  1  0  0  0
  6  7  1  0  0  0
  6 39  1  0  0  0
  6 40  1  0  0  0
  7  8  1  0  0  0
  7 41  1  0  0  0
  7 42  1  0  0  0
  8  9  1  0  0  0
  8 43  1  0  0  0
  8 44  1  0  0  0
  9 10  1  0  0  0
  9 45  1  0  0  0
  9 46  1  0  0  0
 10 11  1  0  0  0
 10 47  1  0  0  0
 10 48  1  0  0  0
 11 12  1  0  0  0
 11 49  1  0  0  0
 11 50  1  0  0  0
 12 13  1  0  0  0
 12 51  1  0  0  0
 12 52  1  0  0  0
 13 14  1  0  0  0
 13 53  1  0  0  0
 13 54  1  0  0  0
 14 15  1  0  0  0
 14 55  1  0  0  0
 14 56  1  0  0  0
 15 16  1  0  0  0
 15 57  1  0  0  0
 15 58  1  0  0  0
 16 17  1  0  0  0
 16 59  1  0  0  0
 16 60  1  0  0  0
 17 18  1  0  0  0
 17 61  1  0  0  0
 17 62  1  0  0  0
 18 19  1  0  0  0
 18 63  1  0  0  0
 18 64  1  0  0  0
 19 20  1  0  0  0
 19 65  1  0  0  0
 19 66  1  0  0  0
 20 21  1  0  0  0
 20 67  1  0  0  0
 20 68  1  0  0  0
 21 22  1  0  0  0
 21 69  1  0  0  0
 21 70  1  0  0  0
 22 23  1  0  0  0
 22 71  1  0  0  0
 22 72  1  0  0  0
 23 24  1  0  0  0
 23 73  1  0  0  0
 23 74  1  0  0  0
 24 25  1  0  0  0
 24 75  1  0  0  0
 24 76  1  0  0  0
 25 26  2  0  0  0
 25 27  1  0  0  0
M  END
>  <s_lp_Force_Field> (1)
S-OPLS

>  <r_lp_Energy> (1)
16.5758

>  <b_lp_Chiralities_Consistent> (1)
1

>  <r_epik_Ionization_Penalty> (1)
  0.0049

>  <r_epik_Ionization_Penalty_Charging> (1)
  0.0049

>  <r_epik_Ionization_Penalty_Neutral> (1)
  0.0000

>  <r_epik_State_Penalty> (1)
  0.0035

>  <r_epik_Charging_Adjusted_Penalty> (1)
0.00839778

>  <i_epik_Tot_Q> (1)
-1

>  <i_epik_Tot_abs_Q> (1)
1

>  <i_m_Spin_multiplicity> (1)
1

>  <s_j_Task> (1)
Single Point

>  <s_j_QM_Method> (1)
DFT(b3lyp-d3)

>  <s_j_QM_Basis> (1)
6-31g**

>  <i_j_Number_of_canonical_orbitals> (1)
650

>  <i_j_Geometry_convergence_category> (1)
1

>  <r_j_Gas_Phase_Energy> (1)
-1132.85117854308

>  <r_j_Final_Energy> (1)
-1132.85117854308

>  <r_j_HOMO> (1)
-0.00579605178722664

>  <r_j_LUMO> (1)
0.118477143952409

>  <r_j_Polarizability> (1)
284.480813894586

>  <r_j_QM_Dipole_(debye)> (1)
47.7517383540455

>  <r_j_QM_Dipole_X_(debye)> (1)
-42.8625434791296

>  <r_j_QM_Dipole_Y_(debye)> (1)
9.40369464569307

>  <r_j_QM_Dipole_Z_(debye)> (1)
-18.8308632129149

>  <r_j_Lowest_Frequency_(cm-1)> (1)
-17.0866408585865

>  <r_j_Highest_Frequency_(cm-1)> (1)
3105.29457122782

>  <r_j_2nd_Lowest_Frequency_(cm-1)> (1)
11.1836978049494

>  <i_j_Num_Negative_Frequencies> (1)
1

>  <r_j_Zero_Point_Energy_(kcal/mol)> (1)
444.173922100869

>  <r_j_Entropy_(cal/mol/K)_298.15K_1.00E+00atm> (1)
200.988382442664

>  <r_j_Enthalpy_(kcal/mol)_298.15K_1.00E+00atm> (1)
20.8126584986447

>  <r_j_Free_Energy_(kcal/mol)_298.15K_1.00E+00atm> (1)
-39.1120277266357

>  <r_j_Internal_Energy_(kcal/mol)_298.15K_1.00E+00atm> (1)
20.2201729098174

>  <r_j_Heat_Capacity_(cal/mol/K)_298.15K_1.00E+00atm> (1)
120.879423593748

>  <r_j_ln(Q)_298.15K_1.00E+00atm> (1)
66.0134667647383

>  <r_j_Total_Internal_Energy_(au)_298.15K_1.00E+00atm> (1)
-1132.11111944085

>  <r_j_Total_Enthalpy_(au)_298.15K_1.00E+00atm> (1)
-1132.11017525496

>  <r_j_Total_Free_Energy_(au)_298.15K_1.00E+00atm> (1)
-1132.2056713217

$$$$
