10470_Octacosanoic acid
                    3D
 Schrodinger Suite 2021-3.
 85 84  0  0  1  0            999 V2000
   -2.6550   13.8869    1.5515 C   0  0  0  0  0  0
   -2.2278   12.4201    1.4447 C   0  0  0  0  0  0
   -2.7294   11.7367    0.1666 C   0  0  0  0  0  0
   -2.3036   10.2684    0.0605 C   0  0  0  0  0  0
   -2.8002    9.5681   -1.2099 C   0  0  0  0  0  0
   -2.3617    8.1013   -1.2917 C   0  0  0  0  0  0
   -2.8564    7.3779   -2.5516 C   0  0  0  0  0  0
   -2.3496    5.9322   -2.6820 C   0  0  0  0  0  0
   -2.8886    4.9719   -1.6131 C   0  0  0  0  0  0
   -2.3142    3.5548   -1.7262 C   0  0  0  0  0  0
   -2.8513    2.6030   -0.6487 C   0  0  0  0  0  0
   -2.2504    1.1886   -0.6842 C   0  0  0  0  0  0
   -0.7442    1.1437   -0.3927 C   0  0  0  0  0  0
   -0.1842   -0.2755   -0.2428 C   0  0  0  0  0  0
    1.3291   -0.2913    0.0032 C   0  0  0  0  0  0
    1.9018   -1.6948    0.2405 C   0  0  0  0  0  0
    3.4346   -1.7369    0.3472 C   0  0  0  0  0  0
    4.0160   -0.9396    1.5227 C   0  0  0  0  0  0
    5.5427   -1.0370    1.6218 C   0  0  0  0  0  0
    6.1374   -0.2032    2.7629 C   0  0  0  0  0  0
    7.6672   -0.2705    2.8311 C   0  0  0  0  0  0
    8.2767    0.5811    3.9508 C   0  0  0  0  0  0
    9.8083    0.5261    3.9873 C   0  0  0  0  0  0
   10.4407    1.3815    5.0913 C   0  0  0  0  0  0
   11.9740    1.3282    5.1019 C   0  0  0  0  0  0
   12.6229    2.1822    6.1973 C   0  0  0  0  0  0
   14.1503    2.1340    6.2006 C   0  0  0  0  0  0
   14.8342    3.0230    7.3114 C   0  0  0  0  0  0
   16.0870    2.9546    7.3286 O   0  0  0  0  0  0
   14.0504    3.6886    8.0367 O   0  5  0  0  0  0
   -2.2835   14.3485    2.4724 H   0  0  0  0  0  0
   -3.7473   13.9807    1.5480 H   0  0  0  0  0  0
   -2.2717   14.4716    0.7072 H   0  0  0  0  0  0
   -1.1321   12.3523    1.4837 H   0  0  0  0  0  0
   -2.5962   11.8652    2.3184 H   0  0  0  0  0  0
   -3.8265   11.8032    0.1254 H   0  0  0  0  0  0
   -2.3601   12.2889   -0.7098 H   0  0  0  0  0  0
   -1.2068   10.2057    0.1025 H   0  0  0  0  0  0
   -2.6699    9.7212    0.9411 H   0  0  0  0  0  0
   -3.8976    9.6245   -1.2528 H   0  0  0  0  0  0
   -2.4341   10.1102   -2.0937 H   0  0  0  0  0  0
   -1.2638    8.0497   -1.2561 H   0  0  0  0  0  0
   -2.7174    7.5769   -0.3954 H   0  0  0  0  0  0
   -3.9560    7.3833   -2.5671 H   0  0  0  0  0  0
   -2.5378    7.9487   -3.4346 H   0  0  0  0  0  0
   -2.6168    5.5436   -3.6741 H   0  0  0  0  0  0
   -1.2506    5.9341   -2.6438 H   0  0  0  0  0  0
   -2.6590    5.3608   -0.6126 H   0  0  0  0  0  0
   -3.9858    4.9343   -1.6793 H   0  0  0  0  0  0
   -2.5349    3.1415   -2.7212 H   0  0  0  0  0  0
   -1.2204    3.6152   -1.6584 H   0  0  0  0  0  0
   -2.6645    3.0427    0.3419 H   0  0  0  0  0  0
   -3.9433    2.5351   -0.7481 H   0  0  0  0  0  0
   -2.7730    0.5647    0.0539 H   0  0  0  0  0  0
   -2.4466    0.7288   -1.6635 H   0  0  0  0  0  0
   -0.1940    1.6595   -1.1904 H   0  0  0  0  0  0
   -0.5395    1.7086    0.5286 H   0  0  0  0  0  0
   -0.6960   -0.7829    0.5877 H   0  0  0  0  0  0
   -0.4158   -0.8610   -1.1444 H   0  0  0  0  0  0
    1.8398    0.1676   -0.8561 H   0  0  0  0  0  0
    1.5537    0.3503    0.8648 H   0  0  0  0  0  0
    1.4600   -2.1146    1.1558 H   0  0  0  0  0  0
    1.5831   -2.3529   -0.5799 H   0  0  0  0  0  0
    3.7585   -2.7831    0.4329 H   0  0  0  0  0  0
    3.8702   -1.3617   -0.5904 H   0  0  0  0  0  0
    3.7366    0.1179    1.4301 H   0  0  0  0  0  0
    3.5633   -1.2920    2.4611 H   0  0  0  0  0  0
    5.8359   -2.0895    1.7464 H   0  0  0  0  0  0
    5.9863   -0.7118    0.6694 H   0  0  0  0  0  0
    5.8263    0.8450    2.6448 H   0  0  0  0  0  0
    5.7124   -0.5377    3.7203 H   0  0  0  0  0  0
    7.9798   -1.3171    2.9589 H   0  0  0  0  0  0
    8.0846    0.0516    1.8658 H   0  0  0  0  0  0
    7.9533    1.6253    3.8297 H   0  0  0  0  0  0
    7.8750    0.2520    4.9202 H   0  0  0  0  0  0
   10.1295   -0.5190    4.1096 H   0  0  0  0  0  0
   10.2023    0.8476    3.0118 H   0  0  0  0  0  0
   10.1150    2.4256    4.9743 H   0  0  0  0  0  0
   10.0580    1.0559    6.0697 H   0  0  0  0  0  0
   12.2946    0.2806    5.2136 H   0  0  0  0  0  0
   12.3486    1.6484    4.1171 H   0  0  0  0  0  0
   12.3065    3.2284    6.0999 H   0  0  0  0  0  0
   12.2580    1.8704    7.1844 H   0  0  0  0  0  0
   14.5028    1.0996    6.3313 H   0  0  0  0  0  0
   14.5450    2.4544    5.2240 H   0  0  0  0  0  0
  1  2  1  0  0  0
  1 31  1  0  0  0
  1 32  1  0  0  0
  1 33  1  0  0  0
  2  3  1  0  0  0
  2 34  1  0  0  0
  2 35  1  0  0  0
  3  4  1  0  0  0
  3 36  1  0  0  0
  3 37  1  0  0  0
  4  5  1  0  0  0
  4 38  1  0  0  0
  4 39  1  0  0  0
  5  6  1  0  0  0
  5 40  1  0  0  0
  5 41  1  0  0  0
  6  7  1  0  0  0
  6 42  1  0  0  0
  6 43  1  0  0  0
  7  8  1  0  0  0
  7 44  1  0  0  0
  7 45  1  0  0  0
  8  9  1  0  0  0
  8 46  1  0  0  0
  8 47  1  0  0  0
  9 10  1  0  0  0
  9 48  1  0  0  0
  9 49  1  0  0  0
 10 11  1  0  0  0
 10 50  1  0  0  0
 10 51  1  0  0  0
 11 12  1  0  0  0
 11 52  1  0  0  0
 11 53  1  0  0  0
 12 13  1  0  0  0
 12 54  1  0  0  0
 12 55  1  0  0  0
 13 14  1  0  0  0
 13 56  1  0  0  0
 13 57  1  0  0  0
 14 15  1  0  0  0
 14 58  1  0  0  0
 14 59  1  0  0  0
 15 16  1  0  0  0
 15 60  1  0  0  0
 15 61  1  0  0  0
 16 17  1  0  0  0
 16 62  1  0  0  0
 16 63  1  0  0  0
 17 18  1  0  0  0
 17 64  1  0  0  0
 17 65  1  0  0  0
 18 19  1  0  0  0
 18 66  1  0  0  0
 18 67  1  0  0  0
 19 20  1  0  0  0
 19 68  1  0  0  0
 19 69  1  0  0  0
 20 21  1  0  0  0
 20 70  1  0  0  0
 20 71  1  0  0  0
 21 22  1  0  0  0
 21 72  1  0  0  0
 21 73  1  0  0  0
 22 23  1  0  0  0
 22 74  1  0  0  0
 22 75  1  0  0  0
 23 24  1  0  0  0
 23 76  1  0  0  0
 23 77  1  0  0  0
 24 25  1  0  0  0
 24 78  1  0  0  0
 24 79  1  0  0  0
 25 26  1  0  0  0
 25 80  1  0  0  0
 25 81  1  0  0  0
 26 27  1  0  0  0
 26 82  1  0  0  0
 26 83  1  0  0  0
 27 28  1  0  0  0
 27 84  1  0  0  0
 27 85  1  0  0  0
 28 29  2  0  0  0
 28 30  1  0  0  0
M  END
>  <s_lp_Force_Field> (1)
S-OPLS

>  <r_lp_Energy> (1)
18.393473

>  <b_lp_Chiralities_Consistent> (1)
1

>  <r_epik_Ionization_Penalty> (1)
  0.0049

>  <r_epik_Ionization_Penalty_Charging> (1)
  0.0049

>  <r_epik_Ionization_Penalty_Neutral> (1)
  0.0000

>  <r_epik_State_Penalty> (1)
  0.0035

>  <r_epik_Charging_Adjusted_Penalty> (1)
0.00839777765143097

>  <i_epik_Tot_Q> (1)
-1

>  <i_epik_Tot_abs_Q> (1)
1

>  <i_m_Spin_multiplicity> (1)
1

>  <s_j_Task> (1)
Single Point

>  <s_j_QM_Method> (1)
DFT(b3lyp-d3)

>  <s_j_QM_Basis> (1)
6-31g**

>  <i_j_Number_of_canonical_orbitals> (1)
725

>  <i_j_Geometry_convergence_category> (1)
0

>  <r_j_Gas_Phase_Energy> (1)
-1250.80843168724

>  <r_j_Final_Energy> (1)
-1250.80843168724

>  <r_j_HOMO> (1)
-0.00395939728723937

>  <r_j_LUMO> (1)
0.118013811292805

>  <r_j_Polarizability> (1)
317.307481768455

>  <r_j_QM_Dipole_(debye)> (1)
58.4848180342402

>  <r_j_QM_Dipole_X_(debye)> (1)
-52.0031079179892

>  <r_j_QM_Dipole_Y_(debye)> (1)
1.80933475019006

>  <r_j_QM_Dipole_Z_(debye)> (1)
-26.6997568365315

>  <r_j_Lowest_Frequency_(cm-1)> (1)
-14.5890483248902

>  <r_j_Highest_Frequency_(cm-1)> (1)
3106.79125393287

>  <r_j_2nd_Lowest_Frequency_(cm-1)> (1)
-12.2039381927091

>  <i_j_Num_Negative_Frequencies> (1)
2

>  <r_j_Zero_Point_Energy_(kcal/mol)> (1)
497.919345014682

>  <r_j_Entropy_(cal/mol/K)_298.15K_1.00E+00atm> (1)
215.009106031907

>  <r_j_Enthalpy_(kcal/mol)_298.15K_1.00E+00atm> (1)
22.7648634097939

>  <r_j_Free_Energy_(kcal/mol)_298.15K_1.00E+00atm> (1)
-41.340101553619

>  <r_j_Internal_Energy_(kcal/mol)_298.15K_1.00E+00atm> (1)
22.1723778209667

>  <r_j_Heat_Capacity_(cal/mol/K)_298.15K_1.00E+00atm> (1)
133.420540350704

>  <r_j_ln(Q)_298.15K_1.00E+00atm> (1)
69.7740203866306

>  <r_j_Total_Internal_Energy_(au)_298.15K_1.00E+00atm> (1)
-1249.97961276466

>  <r_j_Total_Enthalpy_(au)_298.15K_1.00E+00atm> (1)
-1249.97866857877

>  <r_j_Total_Free_Energy_(au)_298.15K_1.00E+00atm> (1)
-1250.08082634375

$$$$
