10522_Chlorobenzilate
                    3D
 Schrodinger Suite 2021-3.
 35 36  0  0  1  0            999 V2000
   -2.7024   -1.9626   -1.4117 C   0  0  0  0  0  0
   -2.2126   -1.1023   -0.2654 C   0  0  0  0  0  0
   -0.7770   -0.9481   -0.4284 O   0  0  0  0  0  0
   -0.1472   -0.2271    0.5181 C   0  0  0  0  0  0
   -0.7066    0.2843    1.4619 O   0  0  0  0  0  0
    1.3829   -0.2283    0.2772 C   0  0  0  0  0  0
    1.9729    1.1304    0.6685 C   0  0  0  0  0  0
    2.5080    1.9757   -0.3064 C   0  0  0  0  0  0
    3.0468    3.2145    0.0426 C   0  0  0  0  0  0
    3.0401    3.6076    1.3771 C   0  0  0  0  0  0
    2.5068    2.7818    2.3654 C   0  0  0  0  0  0
    1.9789    1.5458    2.0050 C   0  0  0  0  0  0
    3.7177    5.1698    1.8267 Cl  0  0  0  0  0  0
    2.0036   -1.3616    1.1244 C   0  0  0  0  0  0
    3.1975   -1.9345    0.6714 C   0  0  0  0  0  0
    3.8331   -2.9349    1.4010 C   0  0  0  0  0  0
    3.2648   -3.3691    2.5980 C   0  0  0  0  0  0
    2.0776   -2.8157    3.0682 C   0  0  0  0  0  0
    1.4518   -1.8118    2.3282 C   0  0  0  0  0  0
    4.0594   -4.6364    3.5247 Cl  0  0  0  0  0  0
    1.6628   -0.4354   -1.0994 O   0  0  0  0  0  0
   -3.7838   -2.1077   -1.3301 H   0  0  0  0  0  0
   -2.2206   -2.9444   -1.3944 H   0  0  0  0  0  0
   -2.4894   -1.4871   -2.3732 H   0  0  0  0  0  0
   -2.6680   -0.1077   -0.2626 H   0  0  0  0  0  0
   -2.4014   -1.5582    0.7114 H   0  0  0  0  0  0
    2.5061    1.6638   -1.3431 H   0  0  0  0  0  0
    3.4660    3.8675   -0.7146 H   0  0  0  0  0  0
    2.5089    3.1019    3.4011 H   0  0  0  0  0  0
    1.5657    0.9044    2.7735 H   0  0  0  0  0  0
    3.6257   -1.5887   -0.2627 H   0  0  0  0  0  0
    4.7597   -3.3744    1.0489 H   0  0  0  0  0  0
    1.6464   -3.1651    3.9996 H   0  0  0  0  0  0
    0.5292   -1.3825    2.7032 H   0  0  0  0  0  0
    1.0906   -1.1552   -1.3996 H   0  0  0  0  0  0
  1  2  1  0  0  0
  1 22  1  0  0  0
  1 23  1  0  0  0
  1 24  1  0  0  0
  2  3  1  0  0  0
  2 25  1  0  0  0
  2 26  1  0  0  0
  3  4  1  0  0  0
  4  5  2  0  0  0
  4  6  1  0  0  0
  6  7  1  0  0  0
  6 14  1  0  0  0
  6 21  1  0  0  0
  7 12  1  0  0  0
  7  8  2  0  0  0
  8  9  1  0  0  0
  8 27  1  0  0  0
  9 10  2  0  0  0
  9 28  1  0  0  0
 10 11  1  0  0  0
 10 13  1  0  0  0
 11 12  2  0  0  0
 11 29  1  0  0  0
 12 30  1  0  0  0
 14 19  1  0  0  0
 14 15  2  0  0  0
 15 16  1  0  0  0
 15 31  1  0  0  0
 16 17  2  0  0  0
 16 32  1  0  0  0
 17 18  1  0  0  0
 17 20  1  0  0  0
 18 19  2  0  0  0
 18 33  1  0  0  0
 19 34  1  0  0  0
 21 35  1  0  0  0
M  END
>  <i_m_Spin_multiplicity> (1)
1

>  <s_j_Task> (1)
Single Point

>  <s_j_QM_Method> (1)
DFT(b3lyp-d3)

>  <s_j_QM_Basis> (1)
cc-pvtz(-f)

>  <i_j_Number_of_canonical_orbitals> (1)
604

>  <i_j_Geometry_convergence_category> (1)
3

>  <r_j_Gas_Phase_Energy> (1)
-1764.58826746229

>  <r_j_Final_Energy> (1)
-1764.58826746229

>  <r_j_HOMO> (1)
-0.241871125040664

>  <r_j_LUMO> (1)
-0.0561816255850063

>  <r_j_Polarizability> (1)
217.845458216805

>  <r_j_QM_Dipole_(debye)> (1)
4.54330285263528

>  <r_j_QM_Dipole_X_(debye)> (1)
-3.0361046529529

>  <r_j_QM_Dipole_Y_(debye)> (1)
-2.45464674511143

>  <r_j_QM_Dipole_Z_(debye)> (1)
-2.32344113413607

>  <r_j_Lowest_Frequency_(cm-1)> (1)
38.5407742047888

>  <r_j_Highest_Frequency_(cm-1)> (1)
3750.56689709141

>  <r_j_2nd_Lowest_Frequency_(cm-1)> (1)
39.8058520964321

>  <i_j_Num_Negative_Frequencies> (1)
0

>  <r_j_Zero_Point_Energy_(kcal/mol)> (1)
166.541895754323

>  <r_j_Entropy_(cal/mol/K)_298.15K_1.00E+00atm> (1)
137.955919888383

>  <r_j_Enthalpy_(kcal/mol)_298.15K_1.00E+00atm> (1)
12.2701802612638

>  <r_j_Free_Energy_(kcal/mol)_298.15K_1.00E+00atm> (1)
-28.8613772534574

>  <r_j_Internal_Energy_(kcal/mol)_298.15K_1.00E+00atm> (1)
11.6776946724366

>  <r_j_Heat_Capacity_(cal/mol/K)_298.15K_1.00E+00atm> (1)
72.7795088118855

>  <r_j_ln(Q)_298.15K_1.00E+00atm> (1)
48.7123700520441

>  <r_j_Total_Internal_Energy_(au)_298.15K_1.00E+00atm> (1)
-1764.30425646493

>  <r_j_Total_Enthalpy_(au)_298.15K_1.00E+00atm> (1)
-1764.30331227904

>  <r_j_Total_Free_Energy_(au)_298.15K_1.00E+00atm> (1)
-1764.36885958865

>  <r_lp_tautomer_probability> (1)
1

>  <r_epik_Ionization_Penalty> (1)
  0.0000

>  <r_epik_Ionization_Penalty_Charging> (1)
  0.0000

>  <r_epik_Ionization_Penalty_Neutral> (1)
  0.0000

>  <r_epik_State_Penalty> (1)
  0.0000

>  <r_epik_Charging_Adjusted_Penalty> (1)
0

>  <i_epik_Tot_Q> (1)
0

>  <i_epik_Tot_abs_Q> (1)
0

>  <s_lp_Force_Field> (1)
S-OPLS

>  <r_lp_Energy> (1)
46.576967

>  <b_lp_Chiralities_Consistent> (1)
1

>  <s_epik_Chemistry_Notes> (1)
This compound has an ester and may undergo hydrolysis at high or low pH.

$$$$
