10553_2-methyl-2-butene
                    3D
 Schrodinger Suite 2021-3.
 15 14  0  0  1  0            999 V2000
   -0.0243    0.0376    0.0000 C   0  0  0  0  0  0
    1.4821   -0.0291    0.0000 C   0  0  0  0  0  0
    2.1918   -1.1658    0.0000 C   0  0  0  0  0  0
    3.7112   -1.1346    0.0000 C   0  0  0  0  0  0
    1.4941   -2.5110    0.0000 C   0  0  0  0  0  0
   -0.3813    1.0710    0.0000 H   0  0  0  0  0  0
   -0.4542   -0.4603    0.8796 H   0  0  0  0  0  0
   -0.4542   -0.4603   -0.8796 H   0  0  0  0  0  0
    2.0187    0.9192    0.0000 H   0  0  0  0  0  0
    4.1401   -2.1406   -0.0001 H   0  0  0  0  0  0
    4.1022   -0.6129    0.8811 H   0  0  0  0  0  0
    4.1022   -0.6128   -0.8811 H   0  0  0  0  0  0
    2.2030   -3.3429    0.0001 H   0  0  0  0  0  0
    0.8464   -2.6266   -0.8786 H   0  0  0  0  0  0
    0.8462   -2.6266    0.8785 H   0  0  0  0  0  0
  1  2  1  0  0  0
  1  6  1  0  0  0
  1  7  1  0  0  0
  1  8  1  0  0  0
  2  3  2  0  0  0
  2  9  1  0  0  0
  3  4  1  0  0  0
  3  5  1  0  0  0
  4 10  1  0  0  0
  4 11  1  0  0  0
  4 12  1  0  0  0
  5 13  1  0  0  0
  5 14  1  0  0  0
  5 15  1  0  0  0
M  END
>  <i_m_Spin_multiplicity> (1)
1

>  <s_j_Task> (1)
Single Point

>  <s_j_QM_Method> (1)
DFT(b3lyp-d3)

>  <s_j_QM_Basis> (1)
cc-pvtz(-f)

>  <i_j_Number_of_canonical_orbitals> (1)
203

>  <i_j_Geometry_convergence_category> (1)
0

>  <r_j_Gas_Phase_Energy> (1)
-196.614950703204

>  <r_j_Final_Energy> (1)
-196.614950703204

>  <r_j_HOMO> (1)
-0.234186993777337

>  <r_j_LUMO> (1)
0.00612485415188038

>  <r_j_Polarizability> (1)
61.4543546959456

>  <r_j_QM_Dipole_(debye)> (1)
0.222395480388688

>  <r_j_QM_Dipole_X_(debye)> (1)
0.0190680429278458

>  <r_j_QM_Dipole_Y_(debye)> (1)
-0.221576529297522

>  <r_j_QM_Dipole_Z_(debye)> (1)
-3.31765169205153e-05

>  <r_j_Lowest_Frequency_(cm-1)> (1)
-107.775139913172

>  <r_j_Highest_Frequency_(cm-1)> (1)
3089.16475657498

>  <r_j_2nd_Lowest_Frequency_(cm-1)> (1)
155.083465876865

>  <i_j_Num_Negative_Frequencies> (1)
1

>  <r_j_Zero_Point_Energy_(kcal/mol)> (1)
84.449893862172

>  <r_j_Entropy_(cal/mol/K)_298.15K_1.00E+00atm> (1)
75.9074793951106

>  <r_j_Enthalpy_(kcal/mol)_298.15K_1.00E+00atm> (1)
4.44658440654426

>  <r_j_Free_Energy_(kcal/mol)_298.15K_1.00E+00atm> (1)
-18.185230575108

>  <r_j_Internal_Energy_(kcal/mol)_298.15K_1.00E+00atm> (1)
3.85409881771698

>  <r_j_Heat_Capacity_(cal/mol/K)_298.15K_1.00E+00atm> (1)
21.7282264756576

>  <r_j_ln(Q)_298.15K_1.00E+00atm> (1)
30.6931188167843

>  <r_j_Total_Internal_Energy_(au)_298.15K_1.00E+00atm> (1)
-196.474229332609

>  <r_j_Total_Enthalpy_(au)_298.15K_1.00E+00atm> (1)
-196.473285146717

>  <r_j_Total_Free_Energy_(au)_298.15K_1.00E+00atm> (1)
-196.509351239841

>  <r_lp_tautomer_probability> (1)
1

>  <r_epik_Ionization_Penalty> (1)
  0.0000

>  <r_epik_Ionization_Penalty_Charging> (1)
  0.0000

>  <r_epik_Ionization_Penalty_Neutral> (1)
  0.0000

>  <r_epik_State_Penalty> (1)
  0.0000

>  <r_epik_Charging_Adjusted_Penalty> (1)
0

>  <i_epik_Tot_Q> (1)
0

>  <i_epik_Tot_abs_Q> (1)
0

>  <s_lp_Force_Field> (1)
S-OPLS

>  <r_lp_Energy> (1)
1.37372

>  <b_lp_Chiralities_Consistent> (1)
1

$$$$
