10569_Abietic acid
                    3D
 Schrodinger Suite 2021-3.
 51 53  0  0  1  0            999 V2000
   -0.5972    0.0386    1.3049 C   0  0  0  0  0  0
   -0.0184   -0.0983   -0.1200 C   0  0  0  0  0  0
   -0.6769   -1.2821   -0.8422 C   0  0  0  0  0  0
    1.4997   -0.1519   -0.0824 C   0  0  0  0  0  0
    2.2141   -1.2912   -0.1597 C   0  0  0  0  0  0
    3.6739   -1.3611   -0.1505 C   0  0  0  0  0  0
    4.3091   -2.5442   -0.1640 C   0  0  0  0  0  0
    5.7869   -2.7057   -0.1925 C   0  0  0  0  0  0
    6.6015   -1.4176   -0.4746 C   0  0  0  0  0  0
    5.9595   -0.1500    0.1939 C   0  0  0  0  0  0
    4.4355   -0.0494   -0.1779 C   0  0  0  0  0  0
    3.6348    0.9797    0.6533 C   0  0  0  0  0  0
    2.2200    1.1680    0.0919 C   0  0  0  0  0  0
    6.1654   -0.2417    1.7269 C   0  0  0  0  0  0
    7.6360   -0.4667    2.1233 C   0  0  0  0  0  0
    8.2492   -1.7000    1.4432 C   0  0  0  0  0  0
    8.0924   -1.7042   -0.0903 C   0  0  0  0  0  0
    9.1094   -0.7443   -0.7451 C   0  0  0  0  0  0
    8.5123   -3.1249   -0.6981 C   0  0  0  0  0  0
    9.1124   -3.9010    0.0804 O   0  0  0  0  0  0
    8.2198   -3.2742   -1.9142 O   0  5  0  0  0  0
    6.6001    1.1476   -0.3541 C   0  0  0  0  0  0
   -0.1648    0.8913    1.8377 H   0  0  0  0  0  0
   -0.3752   -0.8633    1.8860 H   0  0  0  0  0  0
   -1.6859    0.1720    1.2810 H   0  0  0  0  0  0
   -0.2915    0.8167   -0.6706 H   0  0  0  0  0  0
   -0.2597   -1.4177   -1.8444 H   0  0  0  0  0  0
   -1.7582   -1.1270   -0.9323 H   0  0  0  0  0  0
   -0.5275   -2.2162   -0.2896 H   0  0  0  0  0  0
    1.6997   -2.2454   -0.2605 H   0  0  0  0  0  0
    3.7116   -3.4585   -0.1524 H   0  0  0  0  0  0
    6.1052   -3.1699    0.7521 H   0  0  0  0  0  0
    6.0746   -3.4286   -0.9637 H   0  0  0  0  0  0
    6.5741   -1.2757   -1.5617 H   0  0  0  0  0  0
    4.4028    0.3039   -1.2225 H   0  0  0  0  0  0
    3.5517    0.6193    1.6851 H   0  0  0  0  0  0
    4.1484    1.9453    0.6929 H   0  0  0  0  0  0
    2.2664    1.6906   -0.8776 H   0  0  0  0  0  0
    1.6398    1.8290    0.7519 H   0  0  0  0  0  0
    5.7925    0.6686    2.2151 H   0  0  0  0  0  0
    5.5576   -1.0721    2.1110 H   0  0  0  0  0  0
    8.2208    0.4294    1.8746 H   0  0  0  0  0  0
    7.6997   -0.5665    3.2165 H   0  0  0  0  0  0
    9.3115   -1.7949    1.6894 H   0  0  0  0  0  0
    7.7906   -2.6088    1.8479 H   0  0  0  0  0  0
    9.1270    0.2662   -0.3246 H   0  0  0  0  0  0
    8.9199   -0.6794   -1.8202 H   0  0  0  0  0  0
   10.1140   -1.1637   -0.6118 H   0  0  0  0  0  0
    5.9889    2.0248   -0.1144 H   0  0  0  0  0  0
    6.6988    1.0955   -1.4437 H   0  0  0  0  0  0
    7.5914    1.3341    0.0535 H   0  0  0  0  0  0
  1  2  1  0  0  0
  1 23  1  0  0  0
  1 24  1  0  0  0
  1 25  1  0  0  0
  2  3  1  0  0  0
  2  4  1  0  0  0
  2 26  1  0  0  0
  3 27  1  0  0  0
  3 28  1  0  0  0
  3 29  1  0  0  0
  4 13  1  0  0  0
  4  5  2  0  0  0
  5  6  1  0  0  0
  5 30  1  0  0  0
  6 11  1  0  0  0
  6  7  2  0  0  0
  7  8  1  0  0  0
  7 31  1  0  0  0
  8  9  1  0  0  0
  8 32  1  0  0  0
  8 33  1  0  0  0
  9 17  1  0  0  0
  9 10  1  0  0  0
  9 34  1  0  0  0
 10 11  1  0  0  0
 10 14  1  0  0  0
 10 22  1  0  0  0
 11 12  1  0  0  0
 11 35  1  0  0  0
 12 13  1  0  0  0
 12 36  1  0  0  0
 12 37  1  0  0  0
 13 38  1  0  0  0
 13 39  1  0  0  0
 14 15  1  0  0  0
 14 40  1  0  0  0
 14 41  1  0  0  0
 15 16  1  0  0  0
 15 42  1  0  0  0
 15 43  1  0  0  0
 16 17  1  0  0  0
 16 44  1  0  0  0
 16 45  1  0  0  0
 17 18  1  0  0  0
 17 19  1  0  0  0
 18 46  1  0  0  0
 18 47  1  0  0  0
 18 48  1  0  0  0
 19 20  2  0  0  0
 19 21  1  0  0  0
 22 49  1  0  0  0
 22 50  1  0  0  0
 22 51  1  0  0  0
M  END
>  <i_m_Spin_multiplicity> (1)
1

>  <s_j_Task> (1)
Single Point

>  <s_j_QM_Method> (1)
DFT(b3lyp-d3)

>  <s_j_QM_Basis> (1)
cc-pvtz(-f)

>  <i_j_Number_of_canonical_orbitals> (1)
752

>  <i_j_Geometry_convergence_category> (1)
3

>  <r_j_Gas_Phase_Energy> (1)
-930.458705876683

>  <r_j_Final_Energy> (1)
-930.458705876683

>  <r_j_HOMO> (1)
-0.0612479987562639

>  <r_j_LUMO> (1)
0.0717223555829483

>  <r_j_Polarizability> (1)
244.175280176699

>  <r_j_QM_Dipole_(debye)> (1)
16.3775126004462

>  <r_j_QM_Dipole_X_(debye)> (1)
-13.1772204763143

>  <r_j_QM_Dipole_Y_(debye)> (1)
9.11125821967557

>  <r_j_QM_Dipole_Z_(debye)> (1)
3.40128698447672

>  <r_j_Lowest_Frequency_(cm-1)> (1)
54.2913378566161

>  <r_j_Highest_Frequency_(cm-1)> (1)
3110.11789623026

>  <r_j_2nd_Lowest_Frequency_(cm-1)> (1)
74.8349666542935

>  <i_j_Num_Negative_Frequencies> (1)
0

>  <r_j_Zero_Point_Energy_(kcal/mol)> (1)
282.363636388487

>  <r_j_Entropy_(cal/mol/K)_298.15K_1.00E+00atm> (1)
139.750143212731

>  <r_j_Enthalpy_(kcal/mol)_298.15K_1.00E+00atm> (1)
13.2676520553094

>  <r_j_Free_Energy_(kcal/mol)_298.15K_1.00E+00atm> (1)
-28.3988531435664

>  <r_j_Internal_Energy_(kcal/mol)_298.15K_1.00E+00atm> (1)
12.6751664664821

>  <r_j_Heat_Capacity_(cal/mol/K)_298.15K_1.00E+00atm> (1)
85.1515016558622

>  <r_j_ln(Q)_298.15K_1.00E+00atm> (1)
47.9317196554556

>  <r_j_Total_Internal_Energy_(au)_298.15K_1.00E+00atm> (1)
-929.988531613249

>  <r_j_Total_Enthalpy_(au)_298.15K_1.00E+00atm> (1)
-929.987587427357

>  <r_j_Total_Free_Energy_(au)_298.15K_1.00E+00atm> (1)
-930.053987230374

>  <r_epik_Ionization_Penalty> (1)
  0.0050

>  <r_epik_Ionization_Penalty_Charging> (1)
  0.0050

>  <r_epik_Ionization_Penalty_Neutral> (1)
  0.0000

>  <r_epik_State_Penalty> (1)
  0.0036

>  <r_epik_Charging_Adjusted_Penalty> (1)
0.00855165

>  <i_epik_Tot_Q> (1)
-1

>  <i_epik_Tot_abs_Q> (1)
1

>  <s_lp_Force_Field> (1)
S-OPLS

>  <r_lp_Energy> (1)
50.7474

>  <b_lp_Chiralities_Consistent> (1)
1

$$$$
