1061_Phosphate
                    3D
 Schrodinger Suite 2021-3.
  5  4  0  0  1  0            999 V2000
    2.8660   -0.0000    0.0000 P   0  0  1  0  0  0
    1.4126   -0.8391    0.0000 O   0  5  0  0  0  0
    2.0269    1.4534   -0.0000 O   0  5  0  0  0  0
    3.7051   -1.4534   -0.0000 O   0  5  0  0  0  0
    4.3194    0.8391    0.0000 O   0  0  0  0  0  0
  1  2  1  0  0  0
  1  3  1  0  0  0
  1  4  1  0  0  0
  1  5  2  0  0  0
M  END
>  <i_m_Spin_multiplicity> (1)
1

>  <s_j_Task> (1)
Single Point

>  <s_j_QM_Method> (1)
DFT(b3lyp-d3)

>  <s_j_QM_Basis> (1)
cc-pvtz(-f)

>  <i_j_Number_of_canonical_orbitals> (1)
119

>  <r_j_Gas_Phase_Energy> (1)
-641.836967650405

>  <r_j_Final_Energy> (1)
-641.836967650405

>  <r_j_Polarizability> (1)
44.8570960490916

>  <r_j_QM_Dipole_(debye)> (1)
0.00158799146303552

>  <r_j_QM_Dipole_X_(debye)> (1)
0.00105284942796912

>  <r_j_QM_Dipole_Y_(debye)> (1)
-0.00118874608146739

>  <r_j_QM_Dipole_Z_(debye)> (1)
1.03789447778724e-05

>  <r_j_Zero_Point_Energy_(kcal/mol)> (1)
7.05682297479453

>  <r_j_Entropy_(cal/mol/K)_298.15K_1.00E+00atm> (1)
64.7242581884611

>  <r_j_Enthalpy_(kcal/mol)_298.15K_1.00E+00atm> (1)
3.16337985938314

>  <r_j_Free_Energy_(kcal/mol)_298.15K_1.00E+00atm> (1)
-16.1341577195065

>  <r_j_Internal_Energy_(kcal/mol)_298.15K_1.00E+00atm> (1)
2.57089427055587

>  <r_j_Heat_Capacity_(cal/mol/K)_298.15K_1.00E+00atm> (1)
13.9883316075723

>  <r_j_ln(Q)_298.15K_1.00E+00atm> (1)
27.2313082777952

>  <r_j_Total_Internal_Energy_(au)_298.15K_1.00E+00atm> (1)
-641.821624906262

>  <r_j_Total_Enthalpy_(au)_298.15K_1.00E+00atm> (1)
-641.82068072037

>  <r_j_Total_Free_Energy_(au)_298.15K_1.00E+00atm> (1)
-641.851433304198

>  <r_j_HOMO> (1)
0.467136083625663

>  <r_j_LUMO> (1)
0.596659456046239

>  <r_j_Lowest_Frequency_(cm-1)> (1)
-333.304863524302

>  <r_j_Highest_Frequency_(cm-1)> (1)
742.352438066184

>  <r_j_2nd_Lowest_Frequency_(cm-1)> (1)
456.167044310127

>  <i_j_Num_Negative_Frequencies> (1)
1

>  <i_j_Geometry_convergence_category> (1)
3

$$$$
