1068_Dimethyl sulfide
                    3D
 Schrodinger Suite 2021-3.
  9  8  0  0  1  0            999 V2000
   -0.0830    0.0689    0.0000 C   0  0  0  0  0  0
    1.7400   -0.0414    0.0000 S   0  0  0  0  0  0
    1.9162   -1.8593    0.0000 C   0  0  0  0  0  0
   -0.3445    1.1296    0.0000 H   0  0  0  0  0  0
   -0.5056   -0.3991    0.8939 H   0  0  0  0  0  0
   -0.5056   -0.3990   -0.8940 H   0  0  0  0  0  0
    2.9856   -2.0823   -0.0001 H   0  0  0  0  0  0
    1.4637   -2.2985   -0.8939 H   0  0  0  0  0  0
    1.4638   -2.2985    0.8940 H   0  0  0  0  0  0
  1  2  1  0  0  0
  1  4  1  0  0  0
  1  5  1  0  0  0
  1  6  1  0  0  0
  2  3  1  0  0  0
  3  7  1  0  0  0
  3  8  1  0  0  0
  3  9  1  0  0  0
M  END
>  <i_m_Spin_multiplicity> (1)
1

>  <s_j_Task> (1)
Single Point

>  <s_j_QM_Method> (1)
DFT(b3lyp-d3)

>  <s_j_QM_Basis> (1)
cc-pvtz(-f)

>  <i_j_Number_of_canonical_orbitals> (1)
127

>  <i_j_Geometry_convergence_category> (1)
0

>  <r_j_Gas_Phase_Energy> (1)
-478.082374376355

>  <r_j_Final_Energy> (1)
-478.082374376355

>  <r_j_HOMO> (1)
-0.224232251904304

>  <r_j_LUMO> (1)
0.0181687775420274

>  <r_j_Polarizability> (1)
44.8195152460705

>  <r_j_QM_Dipole_(debye)> (1)
1.55144454810085

>  <r_j_QM_Dipole_X_(debye)> (1)
-1.07699824302208

>  <r_j_QM_Dipole_Y_(debye)> (1)
-1.11671615408007

>  <r_j_QM_Dipole_Z_(debye)> (1)
-3.96965290564928e-05

>  <r_j_Lowest_Frequency_(cm-1)> (1)
255.859942664963

>  <r_j_Highest_Frequency_(cm-1)> (1)
3084.18551597382

>  <r_j_2nd_Lowest_Frequency_(cm-1)> (1)
261.023693298328

>  <i_j_Num_Negative_Frequencies> (1)
0

>  <r_j_Zero_Point_Energy_(kcal/mol)> (1)
47.3064167040166

>  <r_j_Entropy_(cal/mol/K)_298.15K_1.00E+00atm> (1)
67.9328317067587

>  <r_j_Enthalpy_(kcal/mol)_298.15K_1.00E+00atm> (1)
3.51650399652381

>  <r_j_Free_Energy_(kcal/mol)_298.15K_1.00E+00atm> (1)
-16.7376697768463

>  <r_j_Internal_Energy_(kcal/mol)_298.15K_1.00E+00atm> (1)
2.92401840769654

>  <r_j_Heat_Capacity_(cal/mol/K)_298.15K_1.00E+00atm> (1)
14.9744079691435

>  <r_j_ln(Q)_298.15K_1.00E+00atm> (1)
28.2499188038914

>  <r_j_Total_Internal_Energy_(au)_298.15K_1.00E+00atm> (1)
-478.00232708223

>  <r_j_Total_Enthalpy_(au)_298.15K_1.00E+00atm> (1)
-478.001382896337

>  <r_j_Total_Free_Energy_(au)_298.15K_1.00E+00atm> (1)
-478.03365997699

>  <r_lp_tautomer_probability> (1)
1

>  <r_epik_Ionization_Penalty> (1)
  0.0000

>  <r_epik_Ionization_Penalty_Charging> (1)
  0.0000

>  <r_epik_Ionization_Penalty_Neutral> (1)
  0.0000

>  <r_epik_State_Penalty> (1)
  0.0000

>  <r_epik_Charging_Adjusted_Penalty> (1)
0

>  <i_epik_Tot_Q> (1)
0

>  <i_epik_Tot_abs_Q> (1)
0

>  <s_lp_Force_Field> (1)
S-OPLS

>  <r_lp_Energy> (1)
0.18788

>  <b_lp_Chiralities_Consistent> (1)
1

$$$$
