10687_Xylenol
                    3D
 Schrodinger Suite 2021-3.
 19 19  0  0  1  0            999 V2000
   -0.0044   -0.0458    0.0000 C   0  0  0  0  0  0
    1.5088    0.0159    0.0000 C   0  0  0  0  0  0
    2.2041    1.2383    0.0000 C   0  0  0  0  0  0
    3.6122    1.2020    0.0000 C   0  0  0  0  0  0
    4.3108   -0.0064    0.0000 C   0  0  0  0  0  0
    3.6067   -1.2078    0.0000 C   0  0  0  0  0  0
    2.2170   -1.1946    0.0000 C   0  0  0  0  0  0
    4.2762    2.4046   -0.0001 O   0  0  0  0  0  0
    1.4884    2.5720    0.0000 C   0  0  0  0  0  0
   -0.4740    0.9380    0.0000 H   0  0  0  0  0  0
   -0.3685   -0.5874    0.8806 H   0  0  0  0  0  0
   -0.3684   -0.5873   -0.8807 H   0  0  0  0  0  0
    5.3990   -0.0010    0.0000 H   0  0  0  0  0  0
    4.1467   -2.1502    0.0000 H   0  0  0  0  0  0
    1.6660   -2.1316    0.0001 H   0  0  0  0  0  0
    5.2267    2.2345    0.0000 H   0  0  0  0  0  0
    2.1993    3.3979    0.0001 H   0  0  0  0  0  0
    0.8475    2.6803    0.8823 H   0  0  0  0  0  0
    0.8477    2.6804   -0.8824 H   0  0  0  0  0  0
  1  2  1  0  0  0
  1 10  1  0  0  0
  1 11  1  0  0  0
  1 12  1  0  0  0
  2  7  1  0  0  0
  2  3  2  0  0  0
  3  4  1  0  0  0
  3  9  1  0  0  0
  4  5  2  0  0  0
  4  8  1  0  0  0
  5  6  1  0  0  0
  5 13  1  0  0  0
  6  7  2  0  0  0
  6 14  1  0  0  0
  7 15  1  0  0  0
  8 16  1  0  0  0
  9 17  1  0  0  0
  9 18  1  0  0  0
  9 19  1  0  0  0
M  END
>  <i_m_Spin_multiplicity> (1)
1

>  <s_j_Task> (1)
Single Point

>  <s_j_QM_Method> (1)
DFT(b3lyp-d3)

>  <s_j_QM_Basis> (1)
cc-pvtz(-f)

>  <i_j_Number_of_canonical_orbitals> (1)
292

>  <i_j_Geometry_convergence_category> (1)
0

>  <r_j_Gas_Phase_Energy> (1)
-386.244080230158

>  <r_j_Final_Energy> (1)
-386.244080230158

>  <r_j_HOMO> (1)
-0.218341449890217

>  <r_j_LUMO> (1)
-0.00617865462767014

>  <r_j_Polarizability> (1)
94.3728961806103

>  <r_j_QM_Dipole_(debye)> (1)
0.679142913204709

>  <r_j_QM_Dipole_X_(debye)> (1)
0.615016634583391

>  <r_j_QM_Dipole_Y_(debye)> (1)
-0.288079169223311

>  <r_j_QM_Dipole_Z_(debye)> (1)
0.000167336505556151

>  <r_j_Lowest_Frequency_(cm-1)> (1)
120.463259151041

>  <r_j_Highest_Frequency_(cm-1)> (1)
3776.70491923532

>  <r_j_2nd_Lowest_Frequency_(cm-1)> (1)
137.211534846252

>  <i_j_Num_Negative_Frequencies> (1)
0

>  <r_j_Zero_Point_Energy_(kcal/mol)> (1)
100.044490113333

>  <r_j_Entropy_(cal/mol/K)_298.15K_1.00E+00atm> (1)
88.514939514882

>  <r_j_Enthalpy_(kcal/mol)_298.15K_1.00E+00atm> (1)
5.91944650282113

>  <r_j_Free_Energy_(kcal/mol)_298.15K_1.00E+00atm> (1)
-20.4712827135409

>  <r_j_Internal_Energy_(kcal/mol)_298.15K_1.00E+00atm> (1)
5.32696091399386

>  <r_j_Heat_Capacity_(cal/mol/K)_298.15K_1.00E+00atm> (1)
33.2444148216631

>  <r_j_ln(Q)_298.15K_1.00E+00atm> (1)
34.5515285090062

>  <r_j_Total_Internal_Energy_(au)_298.15K_1.00E+00atm> (1)
-386.076160133227

>  <r_j_Total_Enthalpy_(au)_298.15K_1.00E+00atm> (1)
-386.075215947335

>  <r_j_Total_Free_Energy_(au)_298.15K_1.00E+00atm> (1)
-386.117272251627

>  <r_lp_tautomer_probability> (1)
1

>  <r_epik_Ionization_Penalty> (1)
  0.0002

>  <r_epik_Ionization_Penalty_Charging> (1)
  0.0000

>  <r_epik_Ionization_Penalty_Neutral> (1)
  0.0002

>  <r_epik_State_Penalty> (1)
  0.0000

>  <r_epik_Charging_Adjusted_Penalty> (1)
0

>  <i_epik_Tot_Q> (1)
0

>  <i_epik_Tot_abs_Q> (1)
0

>  <s_lp_Force_Field> (1)
S-OPLS

>  <r_lp_Energy> (1)
7.144018

>  <b_lp_Chiralities_Consistent> (1)
1

$$$$
