10695_1,2,3,5-tetramethylbenzene
                    3D
 Schrodinger Suite 2021-3.
 24 24  0  0  1  0            999 V2000
   -0.0233    0.0024    0.0000 C   0  0  0  0  0  0
    1.4874    0.0079    0.0000 C   0  0  0  0  0  0
    2.2153    1.1944    0.0000 C   0  0  0  0  0  0
    3.6165    1.2058    0.0000 C   0  0  0  0  0  0
    4.3243   -0.0100    0.0000 C   0  0  0  0  0  0
    3.5986   -1.2237    0.0000 C   0  0  0  0  0  0
    2.2034   -1.1936    0.0000 C   0  0  0  0  0  0
    4.2985   -2.5671    0.0000 C   0  0  0  0  0  0
    5.8408   -0.0079    0.0000 C   0  0  0  0  0  0
    4.3056    2.5559   -0.0001 C   0  0  0  0  0  0
   -0.4295    1.0180    0.0000 H   0  0  0  0  0  0
   -0.4189   -0.5163    0.8812 H   0  0  0  0  0  0
   -0.4190   -0.5164   -0.8810 H   0  0  0  0  0  0
    1.6846    2.1450    0.0000 H   0  0  0  0  0  0
    1.6565   -2.1345    0.0000 H   0  0  0  0  0  0
    3.5717   -3.3838   -0.0005 H   0  0  0  0  0  0
    4.9372   -2.6958    0.8816 H   0  0  0  0  0  0
    4.9378   -2.6955   -0.8813 H   0  0  0  0  0  0
    6.2581   -1.0150    0.0000 H   0  0  0  0  0  0
    6.2412    0.5073    0.8809 H   0  0  0  0  0  0
    6.2411    0.5073   -0.8809 H   0  0  0  0  0  0
    5.3937    2.4877    0.0000 H   0  0  0  0  0  0
    4.0121    3.1397    0.8802 H   0  0  0  0  0  0
    4.0121    3.1395   -0.8804 H   0  0  0  0  0  0
  1  2  1  0  0  0
  1 11  1  0  0  0
  1 12  1  0  0  0
  1 13  1  0  0  0
  2  7  1  0  0  0
  2  3  2  0  0  0
  3  4  1  0  0  0
  3 14  1  0  0  0
  4  5  2  0  0  0
  4 10  1  0  0  0
  5  6  1  0  0  0
  5  9  1  0  0  0
  6  7  2  0  0  0
  6  8  1  0  0  0
  7 15  1  0  0  0
  8 16  1  0  0  0
  8 17  1  0  0  0
  8 18  1  0  0  0
  9 19  1  0  0  0
  9 20  1  0  0  0
  9 21  1  0  0  0
 10 22  1  0  0  0
 10 23  1  0  0  0
 10 24  1  0  0  0
M  END
>  <i_m_Spin_multiplicity> (1)
1

>  <s_j_Task> (1)
Single Point

>  <s_j_QM_Method> (1)
DFT(b3lyp-d3)

>  <s_j_QM_Basis> (1)
cc-pvtz(-f)

>  <i_j_Number_of_canonical_orbitals> (1)
348

>  <i_j_Geometry_convergence_category> (1)
0

>  <r_j_Gas_Phase_Energy> (1)
-389.655906785364

>  <r_j_Final_Energy> (1)
-389.655906785364

>  <r_j_HOMO> (1)
-0.226536168632756

>  <r_j_LUMO> (1)
-0.00462674515637552

>  <r_j_Polarizability> (1)
116.957734635198

>  <r_j_QM_Dipole_(debye)> (1)
0.326118435235404

>  <r_j_QM_Dipole_X_(debye)> (1)
0.325417846287108

>  <r_j_QM_Dipole_Y_(debye)> (1)
0.0213647213672274

>  <r_j_QM_Dipole_Z_(debye)> (1)
-8.83127942578574e-05

>  <r_j_Lowest_Frequency_(cm-1)> (1)
112.660012369321

>  <r_j_Highest_Frequency_(cm-1)> (1)
3103.90857451824

>  <r_j_2nd_Lowest_Frequency_(cm-1)> (1)
127.433511499623

>  <i_j_Num_Negative_Frequencies> (1)
0

>  <r_j_Zero_Point_Energy_(kcal/mol)> (1)
131.910511847191

>  <r_j_Entropy_(cal/mol/K)_298.15K_1.00E+00atm> (1)
96.9003426116761

>  <r_j_Enthalpy_(kcal/mol)_298.15K_1.00E+00atm> (1)
7.11442455980408

>  <r_j_Free_Energy_(kcal/mol)_298.15K_1.00E+00atm> (1)
-21.7764125898672

>  <r_j_Internal_Energy_(kcal/mol)_298.15K_1.00E+00atm> (1)
6.5219389709768

>  <r_j_Heat_Capacity_(cal/mol/K)_298.15K_1.00E+00atm> (1)
40.411492717299

>  <r_j_ln(Q)_298.15K_1.00E+00atm> (1)
36.7543329331772

>  <r_j_Total_Internal_Energy_(au)_298.15K_1.00E+00atm> (1)
-389.435300631295

>  <r_j_Total_Enthalpy_(au)_298.15K_1.00E+00atm> (1)
-389.434356445403

>  <r_j_Total_Free_Energy_(au)_298.15K_1.00E+00atm> (1)
-389.480396925317

>  <r_lp_tautomer_probability> (1)
1

>  <r_epik_Ionization_Penalty> (1)
  0.0000

>  <r_epik_Ionization_Penalty_Charging> (1)
  0.0000

>  <r_epik_Ionization_Penalty_Neutral> (1)
  0.0000

>  <r_epik_State_Penalty> (1)
  0.0000

>  <r_epik_Charging_Adjusted_Penalty> (1)
0

>  <i_epik_Tot_Q> (1)
0

>  <i_epik_Tot_abs_Q> (1)
0

>  <s_lp_Force_Field> (1)
S-OPLS

>  <r_lp_Energy> (1)
4.54193

>  <b_lp_Chiralities_Consistent> (1)
1

$$$$
