107263_1,1,3,5-tetramethylcyclohexane
                    3D
 Schrodinger Suite 2021-3.
 30 30  0  0  1  0            999 V2000
   -0.0511   -0.0076    0.0020 C   0  0  0  0  0  0
    1.4814    0.0040   -0.0199 C   0  0  0  0  0  0
    2.0208    0.7274   -1.2649 C   0  0  0  0  0  0
    3.5567    0.7909   -1.2996 C   0  0  0  0  0  0
    4.0876    1.4268   -0.0029 C   0  0  0  0  0  0
    3.5932    0.7418    1.2939 C   0  0  0  0  0  0
    2.0487    0.6531    1.2545 C   0  0  0  0  0  0
    4.2175   -0.6602    1.4428 C   0  0  0  0  0  0
    4.0177    1.5900    2.5055 C   0  0  0  0  0  0
    4.0588    1.5499   -2.5328 C   0  0  0  0  0  0
   -0.4474    1.0147    0.0398 H   0  0  0  0  0  0
   -0.4334   -0.5448    0.8770 H   0  0  0  0  0  0
   -0.4585   -0.4893   -0.8938 H   0  0  0  0  0  0
    1.8241   -1.0400   -0.0615 H   0  0  0  0  0  0
    1.6445    0.2406   -2.1744 H   0  0  0  0  0  0
    1.6240    1.7552   -1.2764 H   0  0  0  0  0  0
    3.9355   -0.2395   -1.3628 H   0  0  0  0  0  0
    5.1860    1.4399   -0.0142 H   0  0  0  0  0  0
    3.7670    2.4795    0.0155 H   0  0  0  0  0  0
    1.6397    1.6722    1.3280 H   0  0  0  0  0  0
    1.6904    0.1131    2.1416 H   0  0  0  0  0  0
    3.8753   -1.1387    2.3676 H   0  0  0  0  0  0
    5.3106   -0.5930    1.4857 H   0  0  0  0  0  0
    3.9614   -1.3257    0.6142 H   0  0  0  0  0  0
    3.6741    1.1371    3.4429 H   0  0  0  0  0  0
    3.5982    2.6009    2.4480 H   0  0  0  0  0  0
    5.1087    1.6821    2.5586 H   0  0  0  0  0  0
    3.7048    2.5882   -2.5215 H   0  0  0  0  0  0
    3.7003    1.0864   -3.4587 H   0  0  0  0  0  0
    5.1536    1.5723   -2.5693 H   0  0  0  0  0  0
  1  2  1  0  0  0
  1 11  1  0  0  0
  1 12  1  0  0  0
  1 13  1  0  0  0
  2  7  1  0  0  0
  2  3  1  0  0  0
  2 14  1  0  0  0
  3  4  1  0  0  0
  3 15  1  0  0  0
  3 16  1  0  0  0
  4  5  1  0  0  0
  4 10  1  0  0  0
  4 17  1  0  0  0
  5  6  1  0  0  0
  5 18  1  0  0  0
  5 19  1  0  0  0
  6  7  1  0  0  0
  6  8  1  0  0  0
  6  9  1  0  0  0
  7 20  1  0  0  0
  7 21  1  0  0  0
  8 22  1  0  0  0
  8 23  1  0  0  0
  8 24  1  0  0  0
  9 25  1  0  0  0
  9 26  1  0  0  0
  9 27  1  0  0  0
 10 28  1  0  0  0
 10 29  1  0  0  0
 10 30  1  0  0  0
M  END
>  <i_m_Spin_multiplicity> (1)
1

>  <s_j_Task> (1)
Single Point

>  <s_j_QM_Method> (1)
DFT(b3lyp-d3)

>  <s_j_QM_Basis> (1)
cc-pvtz(-f)

>  <i_j_Number_of_canonical_orbitals> (1)
406

>  <i_j_Geometry_convergence_category> (1)
0

>  <r_j_Gas_Phase_Energy> (1)
-393.297365168138

>  <r_j_Final_Energy> (1)
-393.297365168138

>  <r_j_HOMO> (1)
-0.288041751301018

>  <r_j_LUMO> (1)
0.025247141327743

>  <r_j_Polarizability> (1)
117.84223227531

>  <r_j_QM_Dipole_(debye)> (1)
0.189870328352838

>  <r_j_QM_Dipole_X_(debye)> (1)
0.0474176096708381

>  <r_j_QM_Dipole_Y_(debye)> (1)
-0.180613471406758

>  <r_j_QM_Dipole_Z_(debye)> (1)
-0.0343669292826488

>  <r_j_Lowest_Frequency_(cm-1)> (1)
156.028979762577

>  <r_j_Highest_Frequency_(cm-1)> (1)
3060.81393282329

>  <r_j_2nd_Lowest_Frequency_(cm-1)> (1)
174.802487433602

>  <i_j_Num_Negative_Frequencies> (1)
0

>  <r_j_Zero_Point_Energy_(kcal/mol)> (1)
176.465854224883

>  <r_j_Entropy_(cal/mol/K)_298.15K_1.00E+00atm> (1)
96.6257499762842

>  <r_j_Enthalpy_(kcal/mol)_298.15K_1.00E+00atm> (1)
7.28318659019387

>  <r_j_Free_Energy_(kcal/mol)_298.15K_1.00E+00atm> (1)
-21.5257807652353

>  <r_j_Internal_Energy_(kcal/mol)_298.15K_1.00E+00atm> (1)
6.69070100136659

>  <r_j_Heat_Capacity_(cal/mol/K)_298.15K_1.00E+00atm> (1)
44.4766490373267

>  <r_j_ln(Q)_298.15K_1.00E+00atm> (1)
36.3313153453098

>  <r_j_Total_Internal_Energy_(au)_298.15K_1.00E+00atm> (1)
-393.005486616527

>  <r_j_Total_Enthalpy_(au)_298.15K_1.00E+00atm> (1)
-393.004542430635

>  <r_j_Total_Free_Energy_(au)_298.15K_1.00E+00atm> (1)
-393.050452442726

>  <r_lp_tautomer_probability> (1)
1

>  <r_epik_Ionization_Penalty> (1)
  0.0000

>  <r_epik_Ionization_Penalty_Charging> (1)
  0.0000

>  <r_epik_Ionization_Penalty_Neutral> (1)
  0.0000

>  <r_epik_State_Penalty> (1)
  0.0000

>  <r_epik_Charging_Adjusted_Penalty> (1)
0

>  <i_epik_Tot_Q> (1)
0

>  <i_epik_Tot_abs_Q> (1)
0

>  <s_lp_Force_Field> (1)
S-OPLS

>  <r_lp_Energy> (1)
16.4083

>  <b_lp_Chiralities_Consistent> (1)
1

$$$$
