107203_2-methyl-butyl-benzene
                    3D
 Schrodinger Suite 2021-3.
 27 27  0  0  1  0            999 V2000
   -0.7188    1.4163   -0.1061 C   0  0  0  0  0  0
   -0.0733    0.0285   -0.1768 C   0  0  0  0  0  0
    1.4607    0.0316   -0.0428 C   0  0  0  0  0  0
    2.1450    0.7768   -1.1967 C   0  0  0  0  0  0
    2.0186   -1.4109    0.0569 C   0  0  0  0  0  0
    1.5453   -2.1636    1.2801 C   0  0  0  0  0  0
    0.5704   -3.1644    1.1941 C   0  0  0  0  0  0
    0.1100   -3.8193    2.3378 C   0  0  0  0  0  0
    0.6207   -3.4822    3.5910 C   0  0  0  0  0  0
    1.5960   -2.4880    3.6912 C   0  0  0  0  0  0
    2.0519   -1.8379    2.5458 C   0  0  0  0  0  0
   -1.8108    1.3413   -0.1266 H   0  0  0  0  0  0
   -0.4190    2.0547   -0.9430 H   0  0  0  0  0  0
   -0.4396    1.9308    0.8209 H   0  0  0  0  0  0
   -0.4940   -0.5986    0.6173 H   0  0  0  0  0  0
   -0.3433   -0.4582   -1.1256 H   0  0  0  0  0  0
    1.7130    0.5454    0.8973 H   0  0  0  0  0  0
    1.9015    0.3076   -2.1581 H   0  0  0  0  0  0
    3.2347    0.7616   -1.0856 H   0  0  0  0  0  0
    1.8333    1.8239   -1.2486 H   0  0  0  0  0  0
    1.7419   -1.9605   -0.8523 H   0  0  0  0  0  0
    3.1149   -1.3586    0.0664 H   0  0  0  0  0  0
    0.1655   -3.4294    0.2205 H   0  0  0  0  0  0
   -0.6480   -4.5926    2.2487 H   0  0  0  0  0  0
    0.2640   -3.9903    4.4824 H   0  0  0  0  0  0
    2.0031   -2.2211    4.6627 H   0  0  0  0  0  0
    2.8123   -1.0648    2.6303 H   0  0  0  0  0  0
  1  2  1  0  0  0
  1 12  1  0  0  0
  1 13  1  0  0  0
  1 14  1  0  0  0
  2  3  1  0  0  0
  2 15  1  0  0  0
  2 16  1  0  0  0
  3  4  1  0  0  0
  3  5  1  0  0  0
  3 17  1  0  0  0
  4 18  1  0  0  0
  4 19  1  0  0  0
  4 20  1  0  0  0
  5  6  1  0  0  0
  5 21  1  0  0  0
  5 22  1  0  0  0
  6 11  1  0  0  0
  6  7  2  0  0  0
  7  8  1  0  0  0
  7 23  1  0  0  0
  8  9  2  0  0  0
  8 24  1  0  0  0
  9 10  1  0  0  0
  9 25  1  0  0  0
 10 11  2  0  0  0
 10 26  1  0  0  0
 11 27  1  0  0  0
M  END
>  <i_m_Spin_multiplicity> (1)
1

>  <s_j_Task> (1)
Single Point

>  <s_j_QM_Method> (1)
DFT(b3lyp-d3)

>  <s_j_QM_Basis> (1)
cc-pvtz(-f)

>  <i_j_Number_of_canonical_orbitals> (1)
389

>  <i_j_Geometry_convergence_category> (1)
0

>  <r_j_Gas_Phase_Energy> (1)
-428.981351751139

>  <r_j_Final_Energy> (1)
-428.981351751139

>  <r_j_HOMO> (1)
-0.267799501514427

>  <r_j_LUMO> (1)
-0.0381949074288886

>  <r_j_Polarizability> (1)
125.533087947072

>  <r_j_QM_Dipole_(debye)> (1)
0.249286592609551

>  <r_j_QM_Dipole_X_(debye)> (1)
0.0207911558262194

>  <r_j_QM_Dipole_Y_(debye)> (1)
0.210275928689087

>  <r_j_QM_Dipole_Z_(debye)> (1)
-0.132270808980032

>  <r_j_Lowest_Frequency_(cm-1)> (1)
72.929858237277

>  <r_j_Highest_Frequency_(cm-1)> (1)
3144.57163526666

>  <r_j_2nd_Lowest_Frequency_(cm-1)> (1)
87.1774932989239

>  <i_j_Num_Negative_Frequencies> (1)
0

>  <r_j_Zero_Point_Energy_(kcal/mol)> (1)
151.42160933863

>  <r_j_Entropy_(cal/mol/K)_298.15K_1.00E+00atm> (1)
99.586848514493

>  <r_j_Enthalpy_(kcal/mol)_298.15K_1.00E+00atm> (1)
7.25038904493429

>  <r_j_Free_Energy_(kcal/mol)_298.15K_1.00E+00atm> (1)
-22.4414298396618

>  <r_j_Internal_Energy_(kcal/mol)_298.15K_1.00E+00atm> (1)
6.65790345610702

>  <r_j_Heat_Capacity_(cal/mol/K)_298.15K_1.00E+00atm> (1)
42.2539020300592

>  <r_j_ln(Q)_298.15K_1.00E+00atm> (1)
37.8767522161692

>  <r_j_Total_Internal_Energy_(au)_298.15K_1.00E+00atm> (1)
-428.729436010656

>  <r_j_Total_Enthalpy_(au)_298.15K_1.00E+00atm> (1)
-428.728491824764

>  <r_j_Total_Free_Energy_(au)_298.15K_1.00E+00atm> (1)
-428.775808750331

>  <r_lp_tautomer_probability> (1)
1

>  <r_epik_Ionization_Penalty> (1)
  0.0000

>  <r_epik_Ionization_Penalty_Charging> (1)
  0.0000

>  <r_epik_Ionization_Penalty_Neutral> (1)
  0.0000

>  <r_epik_State_Penalty> (1)
  0.0000

>  <r_epik_Charging_Adjusted_Penalty> (1)
0

>  <i_epik_Tot_Q> (1)
0

>  <i_epik_Tot_abs_Q> (1)
0

>  <s_lp_Force_Field> (1)
S-OPLS

>  <r_lp_Energy> (1)
11.2749

>  <b_lp_Chiralities_Consistent> (1)
1

$$$$
