10722_o-Tolualdehyde
                    3D
 Schrodinger Suite 2021-3.
 17 17  0  0  1  0            999 V2000
   -0.0463    0.0422   -0.1373 C   0  0  0  0  0  0
    1.4579   -0.0036   -0.0493 C   0  0  0  0  0  0
    2.1947    1.1850   -0.0378 C   0  0  0  0  0  0
    3.5885    1.1858    0.0423 C   0  0  0  0  0  0
    4.2900   -0.0179    0.1141 C   0  0  0  0  0  0
    3.5781   -1.2119    0.1043 C   0  0  0  0  0  0
    2.1769   -1.2230    0.0238 C   0  0  0  0  0  0
    1.5220   -2.5488    0.0191 C   0  0  0  0  0  0
    0.3247   -2.7635   -0.0478 O   0  0  0  0  0  0
   -0.3984    1.0767   -0.1784 H   0  0  0  0  0  0
   -0.5079   -0.4597    0.7176 H   0  0  0  0  0  0
   -0.4065   -0.4934   -1.0202 H   0  0  0  0  0  0
    1.6633    2.1313   -0.0927 H   0  0  0  0  0  0
    4.1256    2.1299    0.0487 H   0  0  0  0  0  0
    5.3736   -0.0233    0.1768 H   0  0  0  0  0  0
    4.1082   -2.1603    0.1596 H   0  0  0  0  0  0
    2.2393   -3.3992    0.0846 H   0  0  0  0  0  0
  1  2  1  0  0  0
  1 10  1  0  0  0
  1 11  1  0  0  0
  1 12  1  0  0  0
  2  7  1  0  0  0
  2  3  2  0  0  0
  3  4  1  0  0  0
  3 13  1  0  0  0
  4  5  2  0  0  0
  4 14  1  0  0  0
  5  6  1  0  0  0
  5 15  1  0  0  0
  6  7  2  0  0  0
  6 16  1  0  0  0
  7  8  1  0  0  0
  8  9  2  0  0  0
  8 17  1  0  0  0
M  END
> <i_m_Spin_multiplicity>
1

> <s_j_Task>
Single Point

> <s_j_QM_Method>
DFT(b3lyp-d3)

> <s_j_QM_Basis>
cc-pvtz(-f)

> <i_j_Number_of_canonical_orbitals>
273

> <i_j_Geometry_convergence_category>
0

> <r_j_Gas_Phase_Energy>
-385.02645675512

> <r_j_Final_Energy>
-385.02645675512

> <r_j_HOMO>
-0.263969799791633

> <r_j_LUMO>
-0.0774717437891997

> <r_j_Polarizability>
92.9946646121327

> <r_j_QM_Dipole_(debye)>
3.00075514075959

> <r_j_QM_Dipole_X_(debye)>
2.36338409299042

> <r_j_QM_Dipole_Y_(debye)>
1.84666026102601

> <r_j_QM_Dipole_Z_(debye)>
0.0937705931640224

> <r_j_Lowest_Frequency_(cm-1)>
132.642119322408

> <r_j_Highest_Frequency_(cm-1)>
3150.52315143166

> <r_j_2nd_Lowest_Frequency_(cm-1)>
211.427136689938

> <i_j_Num_Negative_Frequencies>
0

> <r_j_Zero_Point_Energy_(kcal/mol)>
85.9680772293573

> <r_j_Entropy_(cal/mol/K)_298.15K_1.00E+00atm>
84.4627531468946

> <r_j_Enthalpy_(kcal/mol)_298.15K_1.00E+00atm>
5.28404809904577

> <r_j_Free_Energy_(kcal/mol)_298.15K_1.00E+00atm>
-19.8985217517009

> <r_j_Internal_Energy_(kcal/mol)_298.15K_1.00E+00atm>
4.6915625102185

> <r_j_Heat_Capacity_(cal/mol/K)_298.15K_1.00E+00atm>
29.2813725600411

> <r_j_ln(Q)_298.15K_1.00E+00atm>
33.5848198284225

> <r_j_Total_Internal_Energy_(au)_298.15K_1.00E+00atm>
-384.88198142196

> <r_j_Total_Enthalpy_(au)_298.15K_1.00E+00atm>
-384.881037236067

> <r_j_Total_Free_Energy_(au)_298.15K_1.00E+00atm>
-384.921168215845

> <r_lp_tautomer_probability>
1

> <r_epik_Ionization_Penalty>
  0.0000

> <r_epik_Ionization_Penalty_Charging>
  0.0000

> <r_epik_Ionization_Penalty_Neutral>
  0.0000

> <r_epik_State_Penalty>
  0.0000

> <r_epik_Charging_Adjusted_Penalty>
0

> <i_epik_Tot_Q>
0

> <i_epik_Tot_abs_Q>
0

> <s_lp_Force_Field>
S-OPLS

> <r_lp_Energy>
9.15124

> <b_lp_Chiralities_Consistent>
1

$$$$
