10742_Syringic acid
                    3D
 Schrodinger Suite 2021-3.
 23 23  0  0  1  0            999 V2000
   -0.7184    1.1445    0.0000 C   0  0  0  0  0  0
    0.0478   -0.0430    0.0000 O   0  0  0  0  0  0
    1.4356    0.1024    0.0000 C   0  0  0  0  0  0
    2.1236    1.3118    0.0000 C   0  0  0  0  0  0
    3.5207    1.3070    0.0000 C   0  0  0  0  0  0
    4.2063    0.0896    0.0000 C   0  0  0  0  0  0
    3.5148   -1.1245    0.0000 C   0  0  0  0  0  0
    2.1130   -1.1250    0.0000 C   0  0  0  0  0  0
    1.4146   -2.3130    0.0000 O   0  0  0  0  0  0
    4.1033   -2.3744    0.0000 O   0  0  0  0  0  0
    5.5149   -2.4088    0.0000 C   0  0  0  0  0  0
    4.3049    2.6517    0.0000 C   0  0  0  0  0  0
    5.5561    2.5378    0.0001 O   0  0  0  0  0  0
    3.5872    3.6840   -0.0001 O   0  5  0  0  0  0
   -1.7681    0.8372    0.0000 H   0  0  0  0  0  0
   -0.5186    1.7570   -0.8896 H   0  0  0  0  0  0
   -0.5186    1.7570    0.8896 H   0  0  0  0  0  0
    1.6403    2.2825   -0.0001 H   0  0  0  0  0  0
    5.2885    0.1547    0.0001 H   0  0  0  0  0  0
    0.4811   -2.0525    0.0000 H   0  0  0  0  0  0
    5.7947   -3.4663    0.0000 H   0  0  0  0  0  0
    5.9410   -1.9229    0.8893 H   0  0  0  0  0  0
    5.9410   -1.9229   -0.8893 H   0  0  0  0  0  0
  1  2  1  0  0  0
  1 15  1  0  0  0
  1 16  1  0  0  0
  1 17  1  0  0  0
  2  3  1  0  0  0
  3  8  1  0  0  0
  3  4  2  0  0  0
  4  5  1  0  0  0
  4 18  1  0  0  0
  5  6  2  0  0  0
  5 12  1  0  0  0
  6  7  1  0  0  0
  6 19  1  0  0  0
  7  8  2  0  0  0
  7 10  1  0  0  0
  8  9  1  0  0  0
  9 20  1  0  0  0
 10 11  1  0  0  0
 11 21  1  0  0  0
 11 22  1  0  0  0
 11 23  1  0  0  0
 12 13  2  0  0  0
 12 14  1  0  0  0
M  END
>  <i_m_Spin_multiplicity> (1)
1

>  <s_j_Task> (1)
Single Point

>  <s_j_QM_Method> (1)
DFT(b3lyp-d3)

>  <s_j_QM_Basis> (1)
cc-pvtz(-f)

>  <i_j_Number_of_canonical_orbitals> (1)
397

>  <i_j_Geometry_convergence_category> (1)
0

>  <r_j_Gas_Phase_Energy> (1)
-724.799492225245

>  <r_j_Final_Energy> (1)
-724.799492225245

>  <r_j_HOMO> (1)
-0.0408059529212044

>  <r_j_LUMO> (1)
0.127901130035495

>  <r_j_Polarizability> (1)
127.605844014431

>  <r_j_QM_Dipole_(debye)> (1)
10.8206473500228

>  <r_j_QM_Dipole_X_(debye)> (1)
-6.59664669560464

>  <r_j_QM_Dipole_Y_(debye)> (1)
-8.57733416899302

>  <r_j_QM_Dipole_Z_(debye)> (1)
-1.86739318803922e-05

>  <r_j_Lowest_Frequency_(cm-1)> (1)
67.0811905677864

>  <r_j_Highest_Frequency_(cm-1)> (1)
3716.62010497124

>  <r_j_2nd_Lowest_Frequency_(cm-1)> (1)
92.988199184286

>  <i_j_Num_Negative_Frequencies> (1)
0

>  <r_j_Zero_Point_Energy_(kcal/mol)> (1)
107.247123600766

>  <r_j_Entropy_(cal/mol/K)_298.15K_1.00E+00atm> (1)
110.75303323177

>  <r_j_Enthalpy_(kcal/mol)_298.15K_1.00E+00atm> (1)
8.62926110670612

>  <r_j_Free_Energy_(kcal/mol)_298.15K_1.00E+00atm> (1)
-24.391755751346

>  <r_j_Internal_Energy_(kcal/mol)_298.15K_1.00E+00atm> (1)
8.03677551787885

>  <r_j_Heat_Capacity_(cal/mol/K)_298.15K_1.00E+00atm> (1)
48.2045622291523

>  <r_j_ln(Q)_298.15K_1.00E+00atm> (1)
41.1685215831585

>  <r_j_Total_Internal_Energy_(au)_298.15K_1.00E+00atm> (1)
-724.615775636683

>  <r_j_Total_Enthalpy_(au)_298.15K_1.00E+00atm> (1)
-724.614831450791

>  <r_j_Total_Free_Energy_(au)_298.15K_1.00E+00atm> (1)
-724.667453791069

>  <r_lp_tautomer_probability> (1)
1

>  <r_epik_Ionization_Penalty> (1)
  0.0024

>  <r_epik_Ionization_Penalty_Charging> (1)
  0.0015

>  <r_epik_Ionization_Penalty_Neutral> (1)
  0.0009

>  <r_epik_State_Penalty> (1)
  0.0000

>  <r_epik_Charging_Adjusted_Penalty> (1)
0.00145259797012749

>  <i_epik_Tot_Q> (1)
-1

>  <i_epik_Tot_abs_Q> (1)
1

>  <s_lp_Force_Field> (1)
S-OPLS

>  <r_lp_Energy> (1)
30.493751

>  <b_lp_Chiralities_Consistent> (1)
1

$$$$
