10797_2-methyl-furan
                    3D
 Schrodinger Suite 2021-3.
 12 12  0  0  1  0            999 V2000
    0.0150    0.0025    0.0000 C   0  0  0  0  0  0
    1.5026    0.0111    0.0000 C   0  0  0  0  0  0
    2.4389    1.0019    0.0000 C   0  0  0  0  0  0
    3.7218    0.3575    0.0000 C   0  0  0  0  0  0
    3.4708   -0.9781    0.0000 C   0  0  0  0  0  0
    2.1236   -1.2100    0.0000 O   0  0  0  0  0  0
   -0.3607    1.0284    0.0000 H   0  0  0  0  0  0
   -0.3816   -0.5102    0.8838 H   0  0  0  0  0  0
   -0.3816   -0.5102   -0.8837 H   0  0  0  0  0  0
    2.2382    2.0637    0.0000 H   0  0  0  0  0  0
    4.6938    0.8294    0.0000 H   0  0  0  0  0  0
    4.1003   -1.8544    0.0000 H   0  0  0  0  0  0
  1  2  1  0  0  0
  1  7  1  0  0  0
  1  8  1  0  0  0
  1  9  1  0  0  0
  2  6  1  0  0  0
  2  3  2  0  0  0
  3  4  1  0  0  0
  3 10  1  0  0  0
  4  5  2  0  0  0
  4 11  1  0  0  0
  5  6  1  0  0  0
  5 12  1  0  0  0
M  END
>  <i_m_Spin_multiplicity> (1)
1

>  <s_j_Task> (1)
Single Point

>  <s_j_QM_Method> (1)
DFT(b3lyp-d3)

>  <s_j_QM_Basis> (1)
cc-pvtz(-f)

>  <i_j_Number_of_canonical_orbitals> (1)
191

>  <i_j_Geometry_convergence_category> (1)
0

>  <r_j_Gas_Phase_Energy> (1)
-269.441149725416

>  <r_j_Final_Energy> (1)
-269.441149725416

>  <r_j_HOMO> (1)
-0.222872820343649

>  <r_j_LUMO> (1)
0.00657040734711404

>  <r_j_Polarizability> (1)
57.2668126564005

>  <r_j_QM_Dipole_(debye)> (1)
0.593991170033679

>  <r_j_QM_Dipole_X_(debye)> (1)
-0.256619903969278

>  <r_j_QM_Dipole_Y_(debye)> (1)
0.535697428555725

>  <r_j_QM_Dipole_Z_(debye)> (1)
-1.88729950103623e-06

>  <r_j_Lowest_Frequency_(cm-1)> (1)
220.224450902261

>  <r_j_Highest_Frequency_(cm-1)> (1)
3232.56236778828

>  <r_j_2nd_Lowest_Frequency_(cm-1)> (1)
255.526449750027

>  <i_j_Num_Negative_Frequencies> (1)
0

>  <r_j_Zero_Point_Energy_(kcal/mol)> (1)
60.9481757915949

>  <r_j_Entropy_(cal/mol/K)_298.15K_1.00E+00atm> (1)
72.2402980484509

>  <r_j_Enthalpy_(kcal/mol)_298.15K_1.00E+00atm> (1)
3.81768143196655

>  <r_j_Free_Energy_(kcal/mol)_298.15K_1.00E+00atm> (1)
-17.7207634311791

>  <r_j_Internal_Energy_(kcal/mol)_298.15K_1.00E+00atm> (1)
3.22519584313927

>  <r_j_Heat_Capacity_(cal/mol/K)_298.15K_1.00E+00atm> (1)
19.0878639182532

>  <r_j_ln(Q)_298.15K_1.00E+00atm> (1)
29.9091889580882

>  <r_j_Total_Internal_Energy_(au)_298.15K_1.00E+00atm> (1)
-269.338882947458

>  <r_j_Total_Enthalpy_(au)_298.15K_1.00E+00atm> (1)
-269.337938761566

>  <r_j_Total_Free_Energy_(au)_298.15K_1.00E+00atm> (1)
-269.372262458487

>  <r_lp_tautomer_probability> (1)
1

>  <r_epik_Ionization_Penalty> (1)
  0.0000

>  <r_epik_Ionization_Penalty_Charging> (1)
  0.0000

>  <r_epik_Ionization_Penalty_Neutral> (1)
  0.0000

>  <r_epik_State_Penalty> (1)
  0.0000

>  <r_epik_Charging_Adjusted_Penalty> (1)
0

>  <i_epik_Tot_Q> (1)
0

>  <i_epik_Tot_abs_Q> (1)
0

>  <s_lp_Force_Field> (1)
S-OPLS

>  <r_lp_Energy> (1)
0.92812

>  <b_lp_Chiralities_Consistent> (1)
1

$$$$
