107_Benzenepropanoic acid
                    3D
 Schrodinger Suite 2021-3.
 20 20  0  0  1  0            999 V2000
   -1.4396    4.0870    0.0126 C   0  0  0  0  0  0
   -1.0533    3.4221    1.1795 C   0  0  0  0  0  0
   -0.6073    2.1034    1.1223 C   0  0  0  0  0  0
   -0.5310    1.4065   -0.0956 C   0  0  0  0  0  0
   -0.9232    2.0909   -1.2561 C   0  0  0  0  0  0
   -1.3711    3.4117   -1.2068 C   0  0  0  0  0  0
    0.0012   -0.0016   -0.1417 C   0  0  0  0  0  0
    1.5383   -0.0770   -0.1256 C   0  0  0  0  0  0
    2.0788   -1.5415    0.1289 C   0  0  0  0  0  0
    3.2301   -1.7543   -0.3169 O   0  0  0  0  0  0
    1.3056   -2.2958    0.7741 O   0  5  0  0  0  0
   -1.7888    5.1159    0.0546 H   0  0  0  0  0  0
   -1.1031    3.9343    2.1383 H   0  0  0  0  0  0
   -0.3061    1.5920    2.0334 H   0  0  0  0  0  0
   -0.8715    1.5732   -2.2116 H   0  0  0  0  0  0
   -1.6691    3.9157   -2.1241 H   0  0  0  0  0  0
   -0.3383   -0.5899    0.7176 H   0  0  0  0  0  0
   -0.3766   -0.5157   -1.0347 H   0  0  0  0  0  0
    1.9679    0.3158   -1.0548 H   0  0  0  0  0  0
    1.9192    0.5626    0.6852 H   0  0  0  0  0  0
  1  6  1  0  0  0
  1  2  2  0  0  0
  1 12  1  0  0  0
  2  3  1  0  0  0
  2 13  1  0  0  0
  3  4  2  0  0  0
  3 14  1  0  0  0
  4  5  1  0  0  0
  4  7  1  0  0  0
  5  6  2  0  0  0
  5 15  1  0  0  0
  6 16  1  0  0  0
  7  8  1  0  0  0
  7 17  1  0  0  0
  7 18  1  0  0  0
  8  9  1  0  0  0
  8 19  1  0  0  0
  8 20  1  0  0  0
  9 10  2  0  0  0
  9 11  1  0  0  0
M  END
>  <i_m_Spin_multiplicity> (1)
1

>  <s_j_Task> (1)
Single Point

>  <s_j_QM_Method> (1)
DFT(b3lyp-d3)

>  <s_j_QM_Basis> (1)
cc-pvtz(-f)

>  <i_j_Number_of_canonical_orbitals> (1)
329

>  <i_j_Geometry_convergence_category> (1)
3

>  <r_j_Gas_Phase_Energy> (1)
-499.06974325105

>  <r_j_Final_Energy> (1)
-499.06974325105

>  <r_j_HOMO> (1)
-0.0430539906165637

>  <r_j_LUMO> (1)
0.102426132662235

>  <r_j_Polarizability> (1)
116.390579897027

>  <r_j_QM_Dipole_(debye)> (1)
13.1813686418971

>  <r_j_QM_Dipole_X_(debye)> (1)
-7.48923309308558

>  <r_j_QM_Dipole_Y_(debye)> (1)
10.8197953379114

>  <r_j_QM_Dipole_Z_(debye)> (1)
-0.769347643612437

>  <r_j_Lowest_Frequency_(cm-1)> (1)
65.0131917332963

>  <r_j_Highest_Frequency_(cm-1)> (1)
3129.03549824031

>  <r_j_2nd_Lowest_Frequency_(cm-1)> (1)
75.9998465643162

>  <i_j_Num_Negative_Frequencies> (1)
0

>  <r_j_Zero_Point_Energy_(kcal/mol)> (1)
98.9492723573984

>  <r_j_Entropy_(cal/mol/K)_298.15K_1.00E+00atm> (1)
95.6485587901227

>  <r_j_Enthalpy_(kcal/mol)_298.15K_1.00E+00atm> (1)
6.42894088432831

>  <r_j_Free_Energy_(kcal/mol)_298.15K_1.00E+00atm> (1)
-22.0886769189468

>  <r_j_Internal_Energy_(kcal/mol)_298.15K_1.00E+00atm> (1)
5.83645529550104

>  <r_j_Heat_Capacity_(cal/mol/K)_298.15K_1.00E+00atm> (1)
35.5612181449415

>  <r_j_ln(Q)_298.15K_1.00E+00atm> (1)
37.2813741557286

>  <r_j_Total_Internal_Energy_(au)_298.15K_1.00E+00atm> (1)
-498.902756563737

>  <r_j_Total_Enthalpy_(au)_298.15K_1.00E+00atm> (1)
-498.901812377845

>  <r_j_Total_Free_Energy_(au)_298.15K_1.00E+00atm> (1)
-498.947258094869

>  <r_epik_Ionization_Penalty> (1)
  0.0026

>  <r_epik_Ionization_Penalty_Charging> (1)
  0.0026

>  <r_epik_Ionization_Penalty_Neutral> (1)
  0.0000

>  <r_epik_State_Penalty> (1)
  0.0018

>  <r_epik_Charging_Adjusted_Penalty> (1)
0.00447873

>  <i_epik_Tot_Q> (1)
-1

>  <i_epik_Tot_abs_Q> (1)
1

>  <s_lp_Force_Field> (1)
S-OPLS

>  <r_lp_Energy> (1)
13.2452

>  <b_lp_Chiralities_Consistent> (1)
1

$$$$
