10800_4,6-Dinitro-o-cresol
                    3D
 Schrodinger Suite 2021-3.
 19 19  0  0  1  0            999 V2000
   -0.0201    0.0120   -0.0702 C   0  0  0  0  0  0
    1.4824    0.0395   -0.0315 C   0  0  0  0  0  0
    2.1923    1.2033    0.0144 C   0  0  0  0  0  0
    3.6142    1.1847    0.0510 C   0  0  0  0  0  0
    4.3014   -0.0224    0.0405 C   0  0  0  0  0  0
    3.6092   -1.2265   -0.0064 C   0  0  0  0  0  0
    2.1373   -1.2866   -0.0455 C   0  0  0  0  0  0
    1.4408   -2.3139   -0.0864 O   0  5  0  0  0  0
    4.4159   -2.4302   -0.0146 N   0  3  1  0  0  0
    5.6585   -2.3104    0.0310 O   0  0  0  0  0  0
    3.8630   -3.5330   -0.0662 O   0  5  0  0  0  0
    4.3401    2.4142    0.0988 N   0  3  1  0  0  0
    5.5851    2.3860    0.1300 O   0  0  0  0  0  0
    3.6972    3.4839    0.1077 O   0  5  0  0  0  0
   -0.4414    1.0224   -0.0641 H   0  0  0  0  0  0
   -0.4179   -0.5487    0.7838 H   0  0  0  0  0  0
   -0.3730   -0.5204   -0.9611 H   0  0  0  0  0  0
    1.6935    2.1665    0.0240 H   0  0  0  0  0  0
    5.3820   -0.0284    0.0686 H   0  0  0  0  0  0
  1  2  1  0  0  0
  1 15  1  0  0  0
  1 16  1  0  0  0
  1 17  1  0  0  0
  2  7  1  0  0  0
  2  3  2  0  0  0
  3  4  1  0  0  0
  3 18  1  0  0  0
  4  5  2  0  0  0
  4 12  1  0  0  0
  5  6  1  0  0  0
  5 19  1  0  0  0
  6  7  2  0  0  0
  6  9  1  0  0  0
  7  8  1  0  0  0
  9 10  2  0  0  0
  9 11  1  0  0  0
 12 13  2  0  0  0
 12 14  1  0  0  0
M  END
>  <i_m_Spin_multiplicity> (1)
1

>  <s_j_Task> (1)
Single Point

>  <s_j_QM_Method> (1)
DFT(b3lyp-d3)

>  <s_j_QM_Basis> (1)
cc-pvtz(-f)

>  <i_j_Number_of_canonical_orbitals> (1)
361

>  <i_j_Geometry_convergence_category> (1)
3

>  <r_j_Gas_Phase_Energy> (1)
-755.542321924176

>  <r_j_Final_Energy> (1)
-755.542321924176

>  <r_j_HOMO> (1)
-0.0887506035367711

>  <r_j_LUMO> (1)
0.0368238687100094

>  <r_j_Polarizability> (1)
135.283021602811

>  <r_j_QM_Dipole_(debye)> (1)
3.14867014266919

>  <r_j_QM_Dipole_X_(debye)> (1)
-2.28076581659528

>  <r_j_QM_Dipole_Y_(debye)> (1)
2.17074784497992

>  <r_j_QM_Dipole_Z_(debye)> (1)
-0.00920601444408584

>  <r_j_Lowest_Frequency_(cm-1)> (1)
52.9546102722048

>  <r_j_Highest_Frequency_(cm-1)> (1)
3203.34041592898

>  <r_j_2nd_Lowest_Frequency_(cm-1)> (1)
82.6241530268632

>  <i_j_Num_Negative_Frequencies> (1)
0

>  <r_j_Zero_Point_Energy_(kcal/mol)> (1)
77.6076199436989

>  <r_j_Entropy_(cal/mol/K)_298.15K_1.00E+00atm> (1)
105.136271533111

>  <r_j_Enthalpy_(kcal/mol)_298.15K_1.00E+00atm> (1)
7.74021033096346

>  <r_j_Free_Energy_(kcal/mol)_298.15K_1.00E+00atm> (1)
-23.6061690266336

>  <r_j_Internal_Energy_(kcal/mol)_298.15K_1.00E+00atm> (1)
7.14772474213618

>  <r_j_Heat_Capacity_(cal/mol/K)_298.15K_1.00E+00atm> (1)
42.794551522262

>  <r_j_ln(Q)_298.15K_1.00E+00atm> (1)
39.8426045658901

>  <r_j_Total_Internal_Energy_(au)_298.15K_1.00E+00atm> (1)
-755.407255684162

>  <r_j_Total_Enthalpy_(au)_298.15K_1.00E+00atm> (1)
-755.40631149827

>  <r_j_Total_Free_Energy_(au)_298.15K_1.00E+00atm> (1)
-755.456265133803

>  <r_epik_Ionization_Penalty> (1)
  0.0015

>  <r_epik_Ionization_Penalty_Charging> (1)
  0.0015

>  <r_epik_Ionization_Penalty_Neutral> (1)
  0.0000

>  <r_epik_State_Penalty> (1)
  0.0010

>  <r_epik_Charging_Adjusted_Penalty> (1)
0.00250869

>  <i_epik_Tot_Q> (1)
-1

>  <i_epik_Tot_abs_Q> (1)
5

>  <s_lp_Force_Field> (1)
S-OPLS

>  <r_lp_Energy> (1)
21.3572

>  <b_lp_Chiralities_Consistent> (1)
1

$$$$
