10812_1-Methyl-3-isopropylbenzene
                    3D
 Schrodinger Suite 2021-3.
 24 24  0  0  1  0            999 V2000
   -2.9158   -2.5173    0.0003 C   0  0  0  0  0  0
   -2.1413   -1.2195    0.0001 C   0  0  0  0  0  0
   -0.7447   -1.2082    0.0004 C   0  0  0  0  0  0
   -0.0114   -0.0123    0.0003 C   0  0  0  0  0  0
   -0.7141    1.1952   -0.0002 C   0  0  0  0  0  0
   -2.1105    1.2048   -0.0005 C   0  0  0  0  0  0
   -2.8198    0.0078   -0.0004 C   0  0  0  0  0  0
    1.5109   -0.0282    0.0002 C   0  0  0  0  0  0
    2.0708   -0.6961   -1.2686 C   0  0  0  0  0  0
    2.0711   -0.6972    1.2684 C   0  0  0  0  0  0
   -2.2502   -3.3850    0.0012 H   0  0  0  0  0  0
   -3.5632   -2.5920   -0.8812 H   0  0  0  0  0  0
   -3.5642   -2.5911    0.8812 H   0  0  0  0  0  0
   -0.2143   -2.1579    0.0008 H   0  0  0  0  0  0
   -0.1663    2.1345   -0.0003 H   0  0  0  0  0  0
   -2.6445    2.1513   -0.0009 H   0  0  0  0  0  0
   -3.9072    0.0200   -0.0007 H   0  0  0  0  0  0
    1.8472    1.0171    0.0007 H   0  0  0  0  0  0
    1.6952   -0.2047   -2.1714 H   0  0  0  0  0  0
    1.7808   -1.7514   -1.3181 H   0  0  0  0  0  0
    3.1654   -0.6504   -1.2814 H   0  0  0  0  0  0
    1.6954   -0.2069    2.1716 H   0  0  0  0  0  0
    3.1656   -0.6512    1.2811 H   0  0  0  0  0  0
    1.7815   -1.7527    1.3168 H   0  0  0  0  0  0
  1  2  1  0  0  0
  1 11  1  0  0  0
  1 12  1  0  0  0
  1 13  1  0  0  0
  2  7  1  0  0  0
  2  3  2  0  0  0
  3  4  1  0  0  0
  3 14  1  0  0  0
  4  5  2  0  0  0
  4  8  1  0  0  0
  5  6  1  0  0  0
  5 15  1  0  0  0
  6  7  2  0  0  0
  6 16  1  0  0  0
  7 17  1  0  0  0
  8  9  1  0  0  0
  8 10  1  0  0  0
  8 18  1  0  0  0
  9 19  1  0  0  0
  9 20  1  0  0  0
  9 21  1  0  0  0
 10 22  1  0  0  0
 10 23  1  0  0  0
 10 24  1  0  0  0
M  END
>  <i_m_Spin_multiplicity> (1)
1

>  <s_j_Task> (1)
Single Point

>  <s_j_QM_Method> (1)
DFT(b3lyp-d3)

>  <s_j_QM_Basis> (1)
cc-pvtz(-f)

>  <i_j_Number_of_canonical_orbitals> (1)
348

>  <i_j_Geometry_convergence_category> (1)
0

>  <r_j_Gas_Phase_Energy> (1)
-389.654488105296

>  <r_j_Final_Energy> (1)
-389.654488105296

>  <r_j_HOMO> (1)
-0.240522634094156

>  <r_j_LUMO> (1)
-0.0106170868512739

>  <r_j_Polarizability> (1)
115.102745259773

>  <r_j_QM_Dipole_(debye)> (1)
0.258751220286708

>  <r_j_QM_Dipole_X_(debye)> (1)
0.0849468195269735

>  <r_j_QM_Dipole_Y_(debye)> (1)
-0.244409949256704

>  <r_j_QM_Dipole_Z_(debye)> (1)
-9.25010674812266e-05

>  <r_j_Lowest_Frequency_(cm-1)> (1)
77.4157783539636

>  <r_j_Highest_Frequency_(cm-1)> (1)
3135.37876890559

>  <r_j_2nd_Lowest_Frequency_(cm-1)> (1)
136.338188862505

>  <i_j_Num_Negative_Frequencies> (1)
0

>  <r_j_Zero_Point_Energy_(kcal/mol)> (1)
132.880371436783

>  <r_j_Entropy_(cal/mol/K)_298.15K_1.00E+00atm> (1)
94.672689893632

>  <r_j_Enthalpy_(kcal/mol)_298.15K_1.00E+00atm> (1)
6.72512909531788

>  <r_j_Free_Energy_(kcal/mol)_298.15K_1.00E+00atm> (1)
-21.5015333964685

>  <r_j_Internal_Energy_(kcal/mol)_298.15K_1.00E+00atm> (1)
6.13264350649061

>  <r_j_Heat_Capacity_(cal/mol/K)_298.15K_1.00E+00atm> (1)
38.7192271719243

>  <r_j_ln(Q)_298.15K_1.00E+00atm> (1)
36.2903905207672

>  <r_j_Total_Internal_Energy_(au)_298.15K_1.00E+00atm> (1)
-389.432956763397

>  <r_j_Total_Enthalpy_(au)_298.15K_1.00E+00atm> (1)
-389.432012577505

>  <r_j_Total_Free_Energy_(au)_298.15K_1.00E+00atm> (1)
-389.476994627723

>  <r_lp_tautomer_probability> (1)
1

>  <r_epik_Ionization_Penalty> (1)
  0.0000

>  <r_epik_Ionization_Penalty_Charging> (1)
  0.0000

>  <r_epik_Ionization_Penalty_Neutral> (1)
  0.0000

>  <r_epik_State_Penalty> (1)
  0.0000

>  <r_epik_Charging_Adjusted_Penalty> (1)
0

>  <i_epik_Tot_Q> (1)
0

>  <i_epik_Tot_abs_Q> (1)
0

>  <s_lp_Force_Field> (1)
S-OPLS

>  <r_lp_Energy> (1)
9.64079

>  <b_lp_Chiralities_Consistent> (1)
1

$$$$
