10870_(2-methylpropyl)benzene
                    3D
 Schrodinger Suite 2021-3.
 24 24  0  0  1  0            999 V2000
   -0.5676   -0.7705   -1.2228 C   0  0  0  0  0  0
   -0.0622    0.0842   -0.0539 C   0  0  0  0  0  0
   -0.5102    1.5433   -0.2049 C   0  0  0  0  0  0
    1.4770   -0.0315    0.0722 C   0  0  0  0  0  0
    2.0387    0.6730    1.2865 C   0  0  0  0  0  0
    2.6886    1.9082    1.1806 C   0  0  0  0  0  0
    3.1601    2.5716    2.3149 C   0  0  0  0  0  0
    2.9883    2.0069    3.5785 C   0  0  0  0  0  0
    2.3441    0.7739    3.6986 C   0  0  0  0  0  0
    1.8761    0.1159    2.5625 C   0  0  0  0  0  0
   -0.1488   -0.4153   -2.1726 H   0  0  0  0  0  0
   -1.6589   -0.7245   -1.3042 H   0  0  0  0  0  0
   -0.2819   -1.8216   -1.1048 H   0  0  0  0  0  0
   -0.4970   -0.3108    0.8757 H   0  0  0  0  0  0
   -0.0917    1.9828   -1.1191 H   0  0  0  0  0  0
   -0.1800    2.1538    0.6403 H   0  0  0  0  0  0
   -1.6011    1.6140   -0.2710 H   0  0  0  0  0  0
    1.7441   -1.0955    0.1121 H   0  0  0  0  0  0
    1.9358    0.3716   -0.8401 H   0  0  0  0  0  0
    2.8231    2.3558    0.1990 H   0  0  0  0  0  0
    3.6618    3.5296    2.2104 H   0  0  0  0  0  0
    3.3545    2.5210    4.4625 H   0  0  0  0  0  0
    2.2091    0.3237    4.6783 H   0  0  0  0  0  0
    1.3759   -0.8447    2.6626 H   0  0  0  0  0  0
  1  2  1  0  0  0
  1 11  1  0  0  0
  1 12  1  0  0  0
  1 13  1  0  0  0
  2  3  1  0  0  0
  2  4  1  0  0  0
  2 14  1  0  0  0
  3 15  1  0  0  0
  3 16  1  0  0  0
  3 17  1  0  0  0
  4  5  1  0  0  0
  4 18  1  0  0  0
  4 19  1  0  0  0
  5 10  1  0  0  0
  5  6  2  0  0  0
  6  7  1  0  0  0
  6 20  1  0  0  0
  7  8  2  0  0  0
  7 21  1  0  0  0
  8  9  1  0  0  0
  8 22  1  0  0  0
  9 10  2  0  0  0
  9 23  1  0  0  0
 10 24  1  0  0  0
M  END
> <i_m_Spin_multiplicity>
1

> <s_j_Task>
Single Point

> <s_j_QM_Method>
DFT(b3lyp-d3)

> <s_j_QM_Basis>
cc-pvtz(-f)

> <i_j_Number_of_canonical_orbitals>
348

> <i_j_Geometry_convergence_category>
0

> <r_j_Gas_Phase_Energy>
-389.652783688627

> <r_j_Final_Energy>
-389.652783688627

> <r_j_HOMO>
-0.249324770899947

> <r_j_LUMO>
-0.0178601504766118

> <r_j_Polarizability>
113.766224118032

> <r_j_QM_Dipole_(debye)>
0.304924551799221

> <r_j_QM_Dipole_X_(debye)>
-0.232326010490381

> <r_j_QM_Dipole_Y_(debye)>
-0.148740937231169

> <r_j_QM_Dipole_Z_(debye)>
-0.129922056369087

> <r_j_Lowest_Frequency_(cm-1)>
83.4728961935613

> <r_j_Highest_Frequency_(cm-1)>
3145.9900278648

> <r_j_2nd_Lowest_Frequency_(cm-1)>
96.9761479833774

> <i_j_Num_Negative_Frequencies>
0

> <r_j_Zero_Point_Energy_(kcal/mol)>
133.536372389158

> <r_j_Entropy_(cal/mol/K)_298.15K_1.00E+00atm>
93.7158347309022

> <r_j_Enthalpy_(kcal/mol)_298.15K_1.00E+00atm>
6.47433301824476

> <r_j_Free_Energy_(kcal/mol)_298.15K_1.00E+00atm>
-21.4670431067737

> <r_j_Internal_Energy_(kcal/mol)_298.15K_1.00E+00atm>
5.88184742941749

> <r_j_Heat_Capacity_(cal/mol/K)_298.15K_1.00E+00atm>
37.4112268833932

> <r_j_ln(Q)_298.15K_1.00E+00atm>
36.2321776454751

> <r_j_Total_Internal_Energy_(au)_298.15K_1.00E+00atm>
-389.430606611652

> <r_j_Total_Enthalpy_(au)_298.15K_1.00E+00atm>
-389.42966242576

> <r_j_Total_Free_Energy_(au)_298.15K_1.00E+00atm>
-389.474189843211

> <r_lp_tautomer_probability>
1

> <r_epik_Ionization_Penalty>
  0.0000

> <r_epik_Ionization_Penalty_Charging>
  0.0000

> <r_epik_Ionization_Penalty_Neutral>
  0.0000

> <r_epik_State_Penalty>
  0.0000

> <r_epik_Charging_Adjusted_Penalty>
0

> <i_epik_Tot_Q>
0

> <i_epik_Tot_abs_Q>
0

> <s_lp_Force_Field>
S-OPLS

> <r_lp_Energy>
10.075

> <b_lp_Chiralities_Consistent>
1

$$$$
