10907_2,2,4-trimethylpentane
                    3D
 Schrodinger Suite 2021-3.
 26 25  0  0  1  0            999 V2000
   -0.7176   -0.4586   -1.4456 C   0  0  0  0  0  0
   -0.1535    0.0717   -0.1193 C   0  0  0  0  0  0
   -0.5228    1.5560    0.0444 C   0  0  0  0  0  0
    1.3749   -0.0853    0.0408 C   0  0  0  0  0  0
    2.0251   -1.4993    0.0401 C   0  0  0  0  0  0
    3.4263   -1.3604    0.6725 C   0  0  0  0  0  0
    2.2107   -2.0514   -1.3881 C   0  0  0  0  0  0
    1.2003   -2.4914    0.8797 C   0  0  0  0  0  0
   -0.1797   -0.0298   -2.2997 H   0  0  0  0  0  0
   -1.7748   -0.1901   -1.5498 H   0  0  0  0  0  0
   -0.6498   -1.5466   -1.5194 H   0  0  0  0  0  0
   -0.6391   -0.4795    0.6979 H   0  0  0  0  0  0
   -0.0773    2.1573   -0.7580 H   0  0  0  0  0  0
   -0.1646    1.9580    0.9984 H   0  0  0  0  0  0
   -1.6078    1.7011    0.0042 H   0  0  0  0  0  0
    1.8704    0.5209   -0.7324 H   0  0  0  0  0  0
    1.6349    0.3879    0.9978 H   0  0  0  0  0  0
    3.9631   -2.3157    0.6533 H   0  0  0  0  0  0
    3.3600   -1.0337    1.7164 H   0  0  0  0  0  0
    4.0319   -0.6256    0.1294 H   0  0  0  0  0  0
    2.8000   -1.3588   -1.9999 H   0  0  0  0  0  0
    1.2616   -2.2215   -1.8992 H   0  0  0  0  0  0
    2.7456   -3.0078   -1.3606 H   0  0  0  0  0  0
    1.7209   -3.4522    0.9631 H   0  0  0  0  0  0
    0.2195   -2.6854    0.4340 H   0  0  0  0  0  0
    1.0382   -2.1102    1.8945 H   0  0  0  0  0  0
  1  2  1  0  0  0
  1  9  1  0  0  0
  1 10  1  0  0  0
  1 11  1  0  0  0
  2  3  1  0  0  0
  2  4  1  0  0  0
  2 12  1  0  0  0
  3 13  1  0  0  0
  3 14  1  0  0  0
  3 15  1  0  0  0
  4  5  1  0  0  0
  4 16  1  0  0  0
  4 17  1  0  0  0
  5  6  1  0  0  0
  5  7  1  0  0  0
  5  8  1  0  0  0
  6 18  1  0  0  0
  6 19  1  0  0  0
  6 20  1  0  0  0
  7 21  1  0  0  0
  7 22  1  0  0  0
  7 23  1  0  0  0
  8 24  1  0  0  0
  8 25  1  0  0  0
  8 26  1  0  0  0
M  END
>  <i_m_Spin_multiplicity> (1)
1

>  <s_j_Task> (1)
Single Point

>  <s_j_QM_Method> (1)
DFT(b3lyp-d3)

>  <s_j_QM_Basis> (1)
cc-pvtz(-f)

>  <i_j_Number_of_canonical_orbitals> (1)
343

>  <i_j_Geometry_convergence_category> (1)
1

>  <r_j_Gas_Phase_Energy> (1)
-315.839808836504

>  <r_j_Final_Energy> (1)
-315.839808836504

>  <r_j_HOMO> (1)
-0.304293911115942

>  <r_j_LUMO> (1)
0.01820874695473

>  <r_j_Polarizability> (1)
98.3459195377624

>  <r_j_QM_Dipole_(debye)> (1)
0.124669067482739

>  <r_j_QM_Dipole_X_(debye)> (1)
-0.0887480812768542

>  <r_j_QM_Dipole_Y_(debye)> (1)
-0.02879342690555

>  <r_j_QM_Dipole_Z_(debye)> (1)
0.0826867161261552

>  <r_j_Lowest_Frequency_(cm-1)> (1)
97.5996950924742

>  <r_j_Highest_Frequency_(cm-1)> (1)
3086.12306329448

>  <r_j_2nd_Lowest_Frequency_(cm-1)> (1)
149.653384641508

>  <i_j_Num_Negative_Frequencies> (1)
0

>  <r_j_Zero_Point_Energy_(kcal/mol)> (1)
153.491774464733

>  <r_j_Entropy_(cal/mol/K)_298.15K_1.00E+00atm> (1)
93.4174965828267

>  <r_j_Enthalpy_(kcal/mol)_298.15K_1.00E+00atm> (1)
6.86251742193301

>  <r_j_Free_Energy_(kcal/mol)_298.15K_1.00E+00atm> (1)
-20.9899091842368

>  <r_j_Internal_Energy_(kcal/mol)_298.15K_1.00E+00atm> (1)
6.27003183310574

>  <r_j_Heat_Capacity_(cal/mol/K)_298.15K_1.00E+00atm> (1)
39.8516323916837

>  <r_j_ln(Q)_298.15K_1.00E+00atm> (1)
35.4268687374874

>  <r_j_Total_Internal_Energy_(au)_298.15K_1.00E+00atm> (1)
-315.585212190659

>  <r_j_Total_Enthalpy_(au)_298.15K_1.00E+00atm> (1)
-315.584268004767

>  <r_j_Total_Free_Energy_(au)_298.15K_1.00E+00atm> (1)
-315.628653672136

>  <r_lp_tautomer_probability> (1)
1

>  <r_epik_Ionization_Penalty> (1)
  0.0000

>  <r_epik_Ionization_Penalty_Charging> (1)
  0.0000

>  <r_epik_Ionization_Penalty_Neutral> (1)
  0.0000

>  <r_epik_State_Penalty> (1)
  0.0000

>  <r_epik_Charging_Adjusted_Penalty> (1)
0

>  <i_epik_Tot_Q> (1)
0

>  <i_epik_Tot_abs_Q> (1)
0

>  <s_lp_Force_Field> (1)
S-OPLS

>  <r_lp_Energy> (1)
8.02017

>  <b_lp_Chiralities_Consistent> (1)
1

$$$$
