10908_T-butyl acetate
                    3D
 Schrodinger Suite 2021-3.
 20 19  0  0  1  0            999 V2000
   -0.2012    0.1055    0.0024 C   0  0  0  0  0  0
    1.2994   -0.1018    0.0031 C   0  0  0  0  0  0
    1.8235   -1.1970    0.0036 O   0  0  0  0  0  0
    1.9480    1.0795    0.0030 O   0  0  0  0  0  0
    3.4208    1.1486    0.0031 C   0  0  0  0  0  0
    3.9736    0.4982   -1.2688 C   0  0  0  0  0  0
    3.9742    0.4981    1.2747 C   0  0  0  0  0  0
    3.6820    2.6558    0.0031 C   0  0  0  0  0  0
   -0.4717    1.1614    0.0014 H   0  0  0  0  0  0
   -0.6218   -0.3870    0.8835 H   0  0  0  0  0  0
   -0.6213   -0.3886   -0.8780 H   0  0  0  0  0  0
    5.0535    0.6680   -1.3249 H   0  0  0  0  0  0
    3.5103    0.9465   -2.1531 H   0  0  0  0  0  0
    3.7834   -0.5750   -1.2742 H   0  0  0  0  0  0
    3.7843   -0.5751    1.2799 H   0  0  0  0  0  0
    3.5111    0.9461    2.1593 H   0  0  0  0  0  0
    5.0541    0.6682    1.3303 H   0  0  0  0  0  0
    4.7585    2.8510    0.0027 H   0  0  0  0  0  0
    3.2430    3.1209    0.8903 H   0  0  0  0  0  0
    3.2424    3.1211   -0.8838 H   0  0  0  0  0  0
  1  2  1  0  0  0
  1  9  1  0  0  0
  1 10  1  0  0  0
  1 11  1  0  0  0
  2  3  2  0  0  0
  2  4  1  0  0  0
  4  5  1  0  0  0
  5  6  1  0  0  0
  5  7  1  0  0  0
  5  8  1  0  0  0
  6 12  1  0  0  0
  6 13  1  0  0  0
  6 14  1  0  0  0
  7 15  1  0  0  0
  7 16  1  0  0  0
  7 17  1  0  0  0
  8 18  1  0  0  0
  8 19  1  0  0  0
  8 20  1  0  0  0
M  END
>  <i_m_Spin_multiplicity> (1)
1

>  <s_j_Task> (1)
Single Point

>  <s_j_QM_Method> (1)
DFT(b3lyp-d3)

>  <s_j_QM_Basis> (1)
cc-pvtz(-f)

>  <i_j_Number_of_canonical_orbitals> (1)
291

>  <i_j_Geometry_convergence_category> (1)
1

>  <r_j_Gas_Phase_Energy> (1)
-386.493067369102

>  <r_j_Final_Energy> (1)
-386.493067369102

>  <r_j_HOMO> (1)
-0.269981510988565

>  <r_j_LUMO> (1)
0.00458129948968419

>  <r_j_Polarizability> (1)
79.1029387724162

>  <r_j_QM_Dipole_(debye)> (1)
1.87363993688376

>  <r_j_QM_Dipole_X_(debye)> (1)
0.0558358969415526

>  <r_j_QM_Dipole_Y_(debye)> (1)
1.87280753560627

>  <r_j_QM_Dipole_Z_(debye)> (1)
-0.00094882817025316

>  <r_j_Lowest_Frequency_(cm-1)> (1)
108.266128840518

>  <r_j_Highest_Frequency_(cm-1)> (1)
3110.4980081135

>  <r_j_2nd_Lowest_Frequency_(cm-1)> (1)
148.861135040005

>  <i_j_Num_Negative_Frequencies> (1)
0

>  <r_j_Zero_Point_Energy_(kcal/mol)> (1)
108.880780571569

>  <r_j_Entropy_(cal/mol/K)_298.15K_1.00E+00atm> (1)
90.9778948663268

>  <r_j_Enthalpy_(kcal/mol)_298.15K_1.00E+00atm> (1)
6.39574618498946

>  <r_j_Free_Energy_(kcal/mol)_298.15K_1.00E+00atm> (1)
-20.7293131694059

>  <r_j_Internal_Energy_(kcal/mol)_298.15K_1.00E+00atm> (1)
5.80326059616219

>  <r_j_Heat_Capacity_(cal/mol/K)_298.15K_1.00E+00atm> (1)
35.0494129894667

>  <r_j_ln(Q)_298.15K_1.00E+00atm> (1)
34.9870335419231

>  <r_j_Total_Internal_Energy_(au)_298.15K_1.00E+00atm> (1)
-386.31030671504

>  <r_j_Total_Enthalpy_(au)_298.15K_1.00E+00atm> (1)
-386.309362529148

>  <r_j_Total_Free_Energy_(au)_298.15K_1.00E+00atm> (1)
-386.352589063011

>  <r_lp_tautomer_probability> (1)
1

>  <r_epik_Ionization_Penalty> (1)
  0.0000

>  <r_epik_Ionization_Penalty_Charging> (1)
  0.0000

>  <r_epik_Ionization_Penalty_Neutral> (1)
  0.0000

>  <r_epik_State_Penalty> (1)
  0.0000

>  <r_epik_Charging_Adjusted_Penalty> (1)
0

>  <i_epik_Tot_Q> (1)
0

>  <i_epik_Tot_abs_Q> (1)
0

>  <s_lp_Force_Field> (1)
S-OPLS

>  <r_lp_Energy> (1)
-2.152602

>  <b_lp_Chiralities_Consistent> (1)
1

>  <s_epik_Chemistry_Notes> (1)
This compound has an ester and may undergo hydrolysis at high or low pH.

$$$$
