10914_Hexamethylcyclotrisiloxane
                    3D
 Schrodinger Suite 2021-3.
 30 30  0  0  1  0            999 V2000
    0.0432    0.0684   -0.0034 C   0  0  0  0  0  0
    1.9111    0.0039    0.0006 Si  0  0  0  0  0  0
    2.4834    0.8064    1.3433 O   0  0  0  0  0  0
    3.4606    2.1429    1.5246 Si  0  0  0  0  0  0
    3.8521    2.6868   -0.0005 O   0  0  0  0  0  0
    3.4624    2.1419   -1.5255 Si  0  0  0  0  0  0
    2.4897    0.8017   -1.3427 O   0  0  0  0  0  0
    2.5117    3.4748   -2.4275 C   0  0  0  0  0  0
    5.0268    1.6499   -2.4226 C   0  0  0  0  0  0
    2.5122    3.4758    2.4280 C   0  0  0  0  0  0
    5.0246    1.6451    2.4189 C   0  0  0  0  0  0
    2.5669   -1.7463    0.0072 C   0  0  0  0  0  0
   -0.3040    1.1071   -0.0106 H   0  0  0  0  0  0
   -0.3700   -0.4191    0.8858 H   0  0  0  0  0  0
   -0.3671   -0.4308   -0.8872 H   0  0  0  0  0  0
    1.6026    3.7367   -1.8760 H   0  0  0  0  0  0
    2.2155    3.1411   -3.4272 H   0  0  0  0  0  0
    3.1134    4.3834   -2.5361 H   0  0  0  0  0  0
    5.5570    0.8677   -1.8691 H   0  0  0  0  0  0
    5.7037    2.5038   -2.5314 H   0  0  0  0  0  0
    4.8032    1.2634   -3.4223 H   0  0  0  0  0  0
    1.6063    3.7435    1.8743 H   0  0  0  0  0  0
    3.1170    4.3810    2.5434 H   0  0  0  0  0  0
    2.2105    3.1380    3.4250 H   0  0  0  0  0  0
    5.5540    0.8660    1.8602 H   0  0  0  0  0  0
    4.8004    1.2517    3.4160 H   0  0  0  0  0  0
    5.7021    2.4975    2.5334 H   0  0  0  0  0  0
    3.6618   -1.7444    0.0123 H   0  0  0  0  0  0
    2.2348   -2.2950   -0.8801 H   0  0  0  0  0  0
    2.2266   -2.2926    0.8931 H   0  0  0  0  0  0
  1  2  1  0  0  0
  1 13  1  0  0  0
  1 14  1  0  0  0
  1 15  1  0  0  0
  2  7  1  0  0  0
  2  3  1  0  0  0
  2 12  1  0  0  0
  3  4  1  0  0  0
  4  5  1  0  0  0
  4 10  1  0  0  0
  4 11  1  0  0  0
  5  6  1  0  0  0
  6  7  1  0  0  0
  6  8  1  0  0  0
  6  9  1  0  0  0
  8 16  1  0  0  0
  8 17  1  0  0  0
  8 18  1  0  0  0
  9 19  1  0  0  0
  9 20  1  0  0  0
  9 21  1  0  0  0
 10 22  1  0  0  0
 10 23  1  0  0  0
 10 24  1  0  0  0
 11 25  1  0  0  0
 11 26  1  0  0  0
 11 27  1  0  0  0
 12 28  1  0  0  0
 12 29  1  0  0  0
 12 30  1  0  0  0
M  END
> <i_m_Spin_multiplicity>
1

> <s_j_Task>
Single Point

> <s_j_QM_Method>
DFT(b3lyp-d3)

> <s_j_QM_Basis>
cc-pvtz(-f)

> <i_j_Number_of_canonical_orbitals>
450

> <i_j_Geometry_convergence_category>
0

> <r_j_Gas_Phase_Energy>
-1334.30858279672

> <r_j_Final_Energy>
-1334.30858279672

> <r_j_HOMO>
-0.259655743666248

> <r_j_LUMO>
0.0159348615340091

> <r_j_Polarizability>
142.721442385842

> <r_j_QM_Dipole_(debye)>
0.013116108374993

> <r_j_QM_Dipole_X_(debye)>
0.0105306832665853

> <r_j_QM_Dipole_Y_(debye)>
-0.00781631420135023

> <r_j_QM_Dipole_Z_(debye)>
-0.000205526517007574

> <r_j_Lowest_Frequency_(cm-1)>
44.8333673039189

> <r_j_Highest_Frequency_(cm-1)>
3066.4893518606

> <r_j_2nd_Lowest_Frequency_(cm-1)>
45.6740851247765

> <i_j_Num_Negative_Frequencies>
0

> <r_j_Zero_Point_Energy_(kcal/mol)>
149.693725017942

> <r_j_Entropy_(cal/mol/K)_298.15K_1.00E+00atm>
128.691695732999

> <r_j_Enthalpy_(kcal/mol)_298.15K_1.00E+00atm>
11.7199059350522

> <r_j_Free_Energy_(kcal/mol)_298.15K_1.00E+00atm>
-26.6495231477415

> <r_j_Internal_Energy_(kcal/mol)_298.15K_1.00E+00atm>
11.1274203462249

> <r_j_Heat_Capacity_(cal/mol/K)_298.15K_1.00E+00atm>
67.0136039420309

> <r_j_ln(Q)_298.15K_1.00E+00atm>
44.9791921529935

> <r_j_Total_Internal_Energy_(au)_298.15K_1.00E+00atm>
-1334.05229798661

> <r_j_Total_Enthalpy_(au)_298.15K_1.00E+00atm>
-1334.05135380072

> <r_j_Total_Free_Energy_(au)_298.15K_1.00E+00atm>
-1334.11249937846

> <r_lp_tautomer_probability>
1

> <r_epik_Ionization_Penalty>
  0.0000

> <r_epik_Ionization_Penalty_Charging>
  0.0000

> <r_epik_Ionization_Penalty_Neutral>
  0.0000

> <r_epik_State_Penalty>
  0.0000

> <r_epik_Charging_Adjusted_Penalty>
0

> <i_epik_Tot_Q>
0

> <i_epik_Tot_abs_Q>
0

> <s_lp_Force_Field>
S-OPLS

> <r_lp_Energy>
-9.61413

> <b_lp_Chiralities_Consistent>
1

$$$$
