10913_Cyclomethicone
                    3D
 Schrodinger Suite 2021-3.
 50 50  0  0  1  0            999 V2000
    1.6267    2.1251   -1.0907 C   0  0  0  0  0  0
    2.1138    0.5768   -0.1611 Si  0  0  0  0  0  0
    2.9693    1.0479    1.1815 O   0  0  0  0  0  0
    4.3012    0.5960    2.0609 Si  0  0  0  0  0  0
    5.6643    1.2058    1.3333 O   0  0  0  0  0  0
    6.1983    2.6205    0.6490 Si  0  0  0  0  0  0
    6.4579    2.3712   -0.9667 O   0  0  0  0  0  0
    5.7926    2.3926   -2.4815 Si  0  0  0  0  0  0
    4.6183    1.2308   -2.5957 O   0  0  0  0  0  0
    4.2897   -0.3535   -2.2254 Si  0  0  0  0  0  0
    3.0654   -0.3952   -1.1088 O   0  0  0  0  0  0
    3.6810   -1.1951   -3.7793 C   0  0  0  0  0  0
    5.8043   -1.1633   -1.4851 C   0  0  0  0  0  0
    4.9716    4.0433   -2.8065 C   0  0  0  0  0  0
    7.1640    2.0188   -3.6970 C   0  0  0  0  0  0
    4.9023    3.9573    0.8807 C   0  0  0  0  0  0
    7.8473    3.0494    1.4142 C   0  0  0  0  0  0
    4.1169    1.3474    3.7651 C   0  0  0  0  0  0
    4.4621   -1.2666    2.0974 C   0  0  0  0  0  0
    0.6477   -0.4445    0.3892 C   0  0  0  0  0  0
    2.5169    2.6048   -1.5069 H   0  0  0  0  0  0
    1.1192    2.8382   -0.4332 H   0  0  0  0  0  0
    0.9566    1.8926   -1.9251 H   0  0  0  0  0  0
    2.8214   -0.6556   -4.1903 H   0  0  0  0  0  0
    3.3677   -2.2238   -3.5737 H   0  0  0  0  0  0
    4.4609   -1.2221   -4.5476 H   0  0  0  0  0  0
    6.1278   -0.6065   -0.6003 H   0  0  0  0  0  0
    6.6340   -1.1774   -2.2004 H   0  0  0  0  0  0
    5.5992   -2.1967   -1.1863 H   0  0  0  0  0  0
    4.1915    4.2472   -2.0669 H   0  0  0  0  0  0
    4.5058    4.0573   -3.7971 H   0  0  0  0  0  0
    5.6988    4.8613   -2.7614 H   0  0  0  0  0  0
    7.6301    1.0563   -3.4619 H   0  0  0  0  0  0
    7.9453    2.7852   -3.6630 H   0  0  0  0  0  0
    6.7791    1.9688   -4.7211 H   0  0  0  0  0  0
    3.9329    3.6158    0.5043 H   0  0  0  0  0  0
    5.1758    4.8754    0.3510 H   0  0  0  0  0  0
    4.7742    4.2040    1.9401 H   0  0  0  0  0  0
    8.5621    2.2364    1.2513 H   0  0  0  0  0  0
    7.7528    3.2059    2.4939 H   0  0  0  0  0  0
    8.2638    3.9600    0.9711 H   0  0  0  0  0  0
    3.9901    2.4327    3.6953 H   0  0  0  0  0  0
    4.9992    1.1473    4.3824 H   0  0  0  0  0  0
    3.2403    0.9424    4.2816 H   0  0  0  0  0  0
    4.4558   -1.6646    1.0790 H   0  0  0  0  0  0
    3.6274   -1.7196    2.6437 H   0  0  0  0  0  0
    5.3942   -1.5759    2.5811 H   0  0  0  0  0  0
    0.9860   -1.3434    0.9150 H   0  0  0  0  0  0
    0.0412   -0.7628   -0.4650 H   0  0  0  0  0  0
    0.0070    0.1252    1.0703 H   0  0  0  0  0  0
  1  2  1  0  0  0
  1 21  1  0  0  0
  1 22  1  0  0  0
  1 23  1  0  0  0
  2 11  1  0  0  0
  2  3  1  0  0  0
  2 20  1  0  0  0
  3  4  1  0  0  0
  4  5  1  0  0  0
  4 18  1  0  0  0
  4 19  1  0  0  0
  5  6  1  0  0  0
  6  7  1  0  0  0
  6 16  1  0  0  0
  6 17  1  0  0  0
  7  8  1  0  0  0
  8  9  1  0  0  0
  8 14  1  0  0  0
  8 15  1  0  0  0
  9 10  1  0  0  0
 10 11  1  0  0  0
 10 12  1  0  0  0
 10 13  1  0  0  0
 12 24  1  0  0  0
 12 25  1  0  0  0
 12 26  1  0  0  0
 13 27  1  0  0  0
 13 28  1  0  0  0
 13 29  1  0  0  0
 14 30  1  0  0  0
 14 31  1  0  0  0
 14 32  1  0  0  0
 15 33  1  0  0  0
 15 34  1  0  0  0
 15 35  1  0  0  0
 16 36  1  0  0  0
 16 37  1  0  0  0
 16 38  1  0  0  0
 17 39  1  0  0  0
 17 40  1  0  0  0
 17 41  1  0  0  0
 18 42  1  0  0  0
 18 43  1  0  0  0
 18 44  1  0  0  0
 19 45  1  0  0  0
 19 46  1  0  0  0
 19 47  1  0  0  0
 20 48  1  0  0  0
 20 49  1  0  0  0
 20 50  1  0  0  0
M  END
>  <i_m_Spin_multiplicity> (1)
1

>  <s_j_Task> (1)
Single Point

>  <s_j_QM_Method> (1)
DFT(b3lyp-d3)

>  <s_j_QM_Basis> (1)
cc-pvtz(-f)

>  <i_j_Number_of_canonical_orbitals> (1)
750

>  <i_j_Geometry_convergence_category> (1)
3

>  <r_j_Gas_Phase_Energy> (1)
-2223.86917225745

>  <r_j_Final_Energy> (1)
-2223.86917225745

>  <r_j_HOMO> (1)
-0.258819261265085

>  <r_j_LUMO> (1)
0.0127513772238559

>  <r_j_Polarizability> (1)
236.694279373257

>  <r_j_QM_Dipole_(debye)> (1)
0.448786241220304

>  <r_j_QM_Dipole_X_(debye)> (1)
-0.021878434222765

>  <r_j_QM_Dipole_Y_(debye)> (1)
0.440546484527304

>  <r_j_QM_Dipole_Z_(debye)> (1)
-0.0827600108460771

>  <r_j_Lowest_Frequency_(cm-1)> (1)
38.4799800065438

>  <r_j_Highest_Frequency_(cm-1)> (1)
3081.87691567808

>  <r_j_2nd_Lowest_Frequency_(cm-1)> (1)
51.3808022792982

>  <i_j_Num_Negative_Frequencies> (1)
0

>  <r_j_Zero_Point_Energy_(kcal/mol)> (1)
250.494489439294

>  <r_j_Entropy_(cal/mol/K)_298.15K_1.00E+00atm> (1)
182.669401857973

>  <r_j_Enthalpy_(kcal/mol)_298.15K_1.00E+00atm> (1)
19.71885229144

>  <r_j_Free_Energy_(kcal/mol)_298.15K_1.00E+00atm> (1)
-34.7440298725147

>  <r_j_Internal_Energy_(kcal/mol)_298.15K_1.00E+00atm> (1)
19.1263667026128

>  <r_j_Heat_Capacity_(cal/mol/K)_298.15K_1.00E+00atm> (1)
115.365909278939

>  <r_j_ln(Q)_298.15K_1.00E+00atm> (1)
58.6411391731648

>  <r_j_Total_Internal_Energy_(au)_298.15K_1.00E+00atm> (1)
-2223.4395040707

>  <r_j_Total_Enthalpy_(au)_298.15K_1.00E+00atm> (1)
-2223.43855988481

>  <r_j_Total_Free_Energy_(au)_298.15K_1.00E+00atm> (1)
-2223.52535201269

>  <r_lp_tautomer_probability> (1)
1

>  <r_epik_Ionization_Penalty> (1)
  0.0000

>  <r_epik_Ionization_Penalty_Charging> (1)
  0.0000

>  <r_epik_Ionization_Penalty_Neutral> (1)
  0.0000

>  <r_epik_State_Penalty> (1)
  0.0000

>  <r_epik_Charging_Adjusted_Penalty> (1)
0

>  <i_epik_Tot_Q> (1)
0

>  <i_epik_Tot_abs_Q> (1)
0

>  <s_lp_Force_Field> (1)
S-OPLS

>  <r_lp_Energy> (1)
-60.745665

>  <b_lp_Chiralities_Consistent> (1)
1

$$$$
