11006_Hexadecane
                    3D
 Schrodinger Suite 2021-3.
 50 49  0  0  1  0            999 V2000
   -7.2706    5.5421    0.3919 C   0  0  0  0  0  0
   -6.5982    4.1684    0.3147 C   0  0  0  0  0  0
   -5.0700    4.2503    0.2171 C   0  0  0  0  0  0
   -4.3920    2.8776    0.1434 C   0  0  0  0  0  0
   -2.8634    2.9496    0.0518 C   0  0  0  0  0  0
   -2.1965    1.5708   -0.0121 C   0  0  0  0  0  0
   -0.6665    1.6291   -0.0909 C   0  0  0  0  0  0
   -0.0175    0.2395   -0.1478 C   0  0  0  0  0  0
    1.5182    0.2485   -0.1316 C   0  0  0  0  0  0
    2.1673    0.8944   -1.3632 C   0  0  0  0  0  0
    3.6973    0.7953   -1.3532 C   0  0  0  0  0  0
    4.3637    1.4296   -2.5793 C   0  0  0  0  0  0
    5.8921    1.3125   -2.5646 C   0  0  0  0  0  0
    6.5694    1.9363   -3.7899 C   0  0  0  0  0  0
    8.0976    1.8099   -3.7692 C   0  0  0  0  0  0
    8.7693    2.4325   -4.9966 C   0  0  0  0  0  0
   -8.3599    5.4546    0.4611 H   0  0  0  0  0  0
   -7.0397    6.1442   -0.4946 H   0  0  0  0  0  0
   -6.9243    6.1013    1.2688 H   0  0  0  0  0  0
   -6.8719    3.5747    1.1978 H   0  0  0  0  0  0
   -6.9863    3.6168   -0.5527 H   0  0  0  0  0  0
   -4.7934    4.8422   -0.6674 H   0  0  0  0  0  0
   -4.6801    4.8032    1.0841 H   0  0  0  0  0  0
   -4.6740    2.2867    1.0269 H   0  0  0  0  0  0
   -4.7818    2.3265   -0.7245 H   0  0  0  0  0  0
   -2.5781    3.5347   -0.8343 H   0  0  0  0  0  0
   -2.4726    3.5028    0.9181 H   0  0  0  0  0  0
   -2.4918    0.9850    0.8704 H   0  0  0  0  0  0
   -2.5838    1.0205   -0.8819 H   0  0  0  0  0  0
   -0.3750    2.2167   -0.9714 H   0  0  0  0  0  0
   -0.2773    2.1749    0.7812 H   0  0  0  0  0  0
   -0.3772   -0.3514    0.7056 H   0  0  0  0  0  0
   -0.3672   -0.2862   -1.0482 H   0  0  0  0  0  0
    1.8680    0.7649    0.7742 H   0  0  0  0  0  0
    1.8775   -0.7862   -0.0471 H   0  0  0  0  0  0
    1.7770    0.4133   -2.2721 H   0  0  0  0  0  0
    1.8770    1.9511   -1.4307 H   0  0  0  0  0  0
    4.0859    1.2720   -0.4417 H   0  0  0  0  0  0
    3.9913   -0.2623   -1.2884 H   0  0  0  0  0  0
    3.9713    0.9573   -3.4915 H   0  0  0  0  0  0
    4.0795    2.4899   -2.6417 H   0  0  0  0  0  0
    6.2834    1.7867   -1.6530 H   0  0  0  0  0  0
    6.1730    0.2515   -2.4966 H   0  0  0  0  0  0
    6.1784    1.4636   -4.7026 H   0  0  0  0  0  0
    6.2935    2.9986   -3.8583 H   0  0  0  0  0  0
    8.4867    2.2830   -2.8571 H   0  0  0  0  0  0
    8.3708    0.7480   -3.6993 H   0  0  0  0  0  0
    9.8586    2.3284   -4.9564 H   0  0  0  0  0  0
    8.5387    3.5015   -5.0722 H   0  0  0  0  0  0
    8.4222    1.9549   -5.9202 H   0  0  0  0  0  0
  1  2  1  0  0  0
  1 17  1  0  0  0
  1 18  1  0  0  0
  1 19  1  0  0  0
  2  3  1  0  0  0
  2 20  1  0  0  0
  2 21  1  0  0  0
  3  4  1  0  0  0
  3 22  1  0  0  0
  3 23  1  0  0  0
  4  5  1  0  0  0
  4 24  1  0  0  0
  4 25  1  0  0  0
  5  6  1  0  0  0
  5 26  1  0  0  0
  5 27  1  0  0  0
  6  7  1  0  0  0
  6 28  1  0  0  0
  6 29  1  0  0  0
  7  8  1  0  0  0
  7 30  1  0  0  0
  7 31  1  0  0  0
  8  9  1  0  0  0
  8 32  1  0  0  0
  8 33  1  0  0  0
  9 10  1  0  0  0
  9 34  1  0  0  0
  9 35  1  0  0  0
 10 11  1  0  0  0
 10 36  1  0  0  0
 10 37  1  0  0  0
 11 12  1  0  0  0
 11 38  1  0  0  0
 11 39  1  0  0  0
 12 13  1  0  0  0
 12 40  1  0  0  0
 12 41  1  0  0  0
 13 14  1  0  0  0
 13 42  1  0  0  0
 13 43  1  0  0  0
 14 15  1  0  0  0
 14 44  1  0  0  0
 14 45  1  0  0  0
 15 16  1  0  0  0
 15 46  1  0  0  0
 15 47  1  0  0  0
 16 48  1  0  0  0
 16 49  1  0  0  0
 16 50  1  0  0  0
M  END
>  <i_m_Spin_multiplicity> (1)
1

>  <s_j_Task> (1)
Single Point

>  <s_j_QM_Method> (1)
DFT(b3lyp-d3)

>  <s_j_QM_Basis> (1)
cc-pvtz(-f)

>  <i_j_Number_of_canonical_orbitals> (1)
670

>  <i_j_Geometry_convergence_category> (1)
0

>  <r_j_Gas_Phase_Energy> (1)
-630.475874815874

>  <r_j_Final_Energy> (1)
-630.475874815874

>  <r_j_HOMO> (1)
-0.275905156554779

>  <r_j_LUMO> (1)
0.0440001801038309

>  <r_j_Polarizability> (1)
200.852128561921

>  <r_j_QM_Dipole_(debye)> (1)
0.0990290693990698

>  <r_j_QM_Dipole_X_(debye)> (1)
0.000182261005111972

>  <r_j_QM_Dipole_Y_(debye)> (1)
-0.0858589670469967

>  <r_j_QM_Dipole_Z_(debye)> (1)
0.0493453254583911

>  <r_j_Lowest_Frequency_(cm-1)> (1)
29.6318783532236

>  <r_j_Highest_Frequency_(cm-1)> (1)
3045.85105534021

>  <r_j_2nd_Lowest_Frequency_(cm-1)> (1)
56.4609184895553

>  <i_j_Num_Negative_Frequencies> (1)
0

>  <r_j_Zero_Point_Energy_(kcal/mol)> (1)
297.088482031103

>  <r_j_Entropy_(cal/mol/K)_298.15K_1.00E+00atm> (1)
143.65884071503

>  <r_j_Enthalpy_(kcal/mol)_298.15K_1.00E+00atm> (1)
13.1591166232693

>  <r_j_Free_Energy_(kcal/mol)_298.15K_1.00E+00atm> (1)
-29.672766735917

>  <r_j_Internal_Energy_(kcal/mol)_298.15K_1.00E+00atm> (1)
12.566631034442

>  <r_j_Heat_Capacity_(cal/mol/K)_298.15K_1.00E+00atm> (1)
76.0784303307216

>  <r_j_ln(Q)_298.15K_1.00E+00atm> (1)
50.0818370867877

>  <r_j_Total_Internal_Energy_(au)_298.15K_1.00E+00atm> (1)
-629.982407979325

>  <r_j_Total_Enthalpy_(au)_298.15K_1.00E+00atm> (1)
-629.981463793433

>  <r_j_Total_Free_Energy_(au)_298.15K_1.00E+00atm> (1)
-630.049720744773

>  <r_lp_tautomer_probability> (1)
1

>  <r_epik_Ionization_Penalty> (1)
  0.0000

>  <r_epik_Ionization_Penalty_Charging> (1)
  0.0000

>  <r_epik_Ionization_Penalty_Neutral> (1)
  0.0000

>  <r_epik_State_Penalty> (1)
  0.0000

>  <r_epik_Charging_Adjusted_Penalty> (1)
0

>  <i_epik_Tot_Q> (1)
0

>  <i_epik_Tot_abs_Q> (1)
0

>  <s_lp_Force_Field> (1)
S-OPLS

>  <r_lp_Energy> (1)
7.505019

>  <b_lp_Chiralities_Consistent> (1)
1

$$$$
