11008_Dotriacontane
                    3D
 Schrodinger Suite 2021-3.
 98 97  0  0  1  0            999 V2000
   -6.9830    0.8788  -12.8416 C   0  0  0  0  0  0
   -6.4076    1.6114  -11.6259 C   0  0  0  0  0  0
   -6.9790    1.1110  -10.2936 C   0  0  0  0  0  0
   -6.4028    1.8421   -9.0760 C   0  0  0  0  0  0
   -6.9612    1.3483   -7.7362 C   0  0  0  0  0  0
   -6.3665    2.0851   -6.5306 C   0  0  0  0  0  0
   -6.9007    1.5966   -5.1792 C   0  0  0  0  0  0
   -6.2778    2.3335   -3.9875 C   0  0  0  0  0  0
   -6.7793    1.8306   -2.6277 C   0  0  0  0  0  0
   -6.2116    2.5951   -1.4210 C   0  0  0  0  0  0
   -4.6885    2.4851   -1.2663 C   0  0  0  0  0  0
   -4.1626    3.1439    0.0163 C   0  0  0  0  0  0
   -2.6298    3.1665    0.1311 C   0  0  0  0  0  0
   -1.9804    1.7778    0.1885 C   0  0  0  0  0  0
   -0.4580    1.8194    0.3694 C   0  0  0  0  0  0
    0.1770    0.4242    0.3845 C   0  0  0  0  0  0
    1.7015    0.4305    0.5490 C   0  0  0  0  0  0
    2.3026   -0.9797    0.5366 C   0  0  0  0  0  0
    3.8271   -1.0168    0.6955 C   0  0  0  0  0  0
    4.3869   -2.4439    0.6616 C   0  0  0  0  0  0
    5.9106   -2.5203    0.8270 C   0  0  0  0  0  0
    6.4808   -3.9422    0.6929 C   0  0  0  0  0  0
    6.0543   -4.9047    1.8096 C   0  0  0  0  0  0
    6.5697   -6.3347    1.6091 C   0  0  0  0  0  0
    6.1477   -7.2930    2.7296 C   0  0  0  0  0  0
    6.5304   -8.7532    2.4620 C   0  0  0  0  0  0
    6.1158   -9.7025    3.5943 C   0  0  0  0  0  0
    6.4266  -11.1848    3.3301 C   0  0  0  0  0  0
    5.6050  -11.8043    2.1913 C   0  0  0  0  0  0
    5.8564  -13.3043    2.0008 C   0  0  0  0  0  0
    5.0306  -13.9142    0.8615 C   0  0  0  0  0  0
    5.2786  -15.4137    0.6730 C   0  0  0  0  0  0
   -6.5576    1.2557  -13.7776 H   0  0  0  0  0  0
   -8.0710    1.0003  -12.8968 H   0  0  0  0  0  0
   -6.7742   -0.1961  -12.7893 H   0  0  0  0  0  0
   -5.3146    1.5010  -11.6133 H   0  0  0  0  0  0
   -6.6018    2.6887  -11.7196 H   0  0  0  0  0  0
   -8.0730    1.2217  -10.3028 H   0  0  0  0  0  0
   -6.7853    0.0329  -10.1976 H   0  0  0  0  0  0
   -5.3087    1.7332   -9.0733 H   0  0  0  0  0  0
   -6.5978    2.9197   -9.1745 H   0  0  0  0  0  0
   -8.0547    1.4617   -7.7316 H   0  0  0  0  0  0
   -6.7682    0.2705   -7.6360 H   0  0  0  0  0  0
   -5.2724    1.9767   -6.5460 H   0  0  0  0  0  0
   -6.5635    3.1622   -6.6306 H   0  0  0  0  0  0
   -7.9936    1.7127   -5.1529 H   0  0  0  0  0  0
   -6.7083    0.5185   -5.0804 H   0  0  0  0  0  0
   -5.1862    2.2314   -4.0418 H   0  0  0  0  0  0
   -6.4862    3.4099   -4.0747 H   0  0  0  0  0  0
   -7.8759    1.8936   -2.6074 H   0  0  0  0  0  0
   -6.5350    0.7633   -2.5262 H   0  0  0  0  0  0
   -6.4927    3.6555   -1.4962 H   0  0  0  0  0  0
   -6.6893    2.2193   -0.5058 H   0  0  0  0  0  0
   -4.4077    1.4237   -1.2840 H   0  0  0  0  0  0
   -4.1906    2.9461   -2.1297 H   0  0  0  0  0  0
   -4.5377    4.1753    0.0646 H   0  0  0  0  0  0
   -4.5860    2.6263    0.8892 H   0  0  0  0  0  0
   -2.2121    3.7245   -0.7194 H   0  0  0  0  0  0
   -2.3470    3.7295    1.0310 H   0  0  0  0  0  0
   -2.4294    1.2020    1.0110 H   0  0  0  0  0  0
   -2.2104    1.2223   -0.7300 H   0  0  0  0  0  0
   -0.0115    2.4140   -0.4405 H   0  0  0  0  0  0
   -0.2124    2.3457    1.3028 H   0  0  0  0  0  0
   -0.2715   -0.1688    1.1945 H   0  0  0  0  0  0
   -0.0814   -0.0980   -0.5481 H   0  0  0  0  0  0
    2.1538    1.0281   -0.2554 H   0  0  0  0  0  0
    1.9675    0.9353    1.4887 H   0  0  0  0  0  0
    1.8422   -1.5749    1.3384 H   0  0  0  0  0  0
    2.0271   -1.4793   -0.4035 H   0  0  0  0  0  0
    4.2939   -0.4199   -0.1010 H   0  0  0  0  0  0
    4.1091   -0.5339    1.6421 H   0  0  0  0  0  0
    3.8961   -3.0326    1.4475 H   0  0  0  0  0  0
    4.1062   -2.9181   -0.2903 H   0  0  0  0  0  0
    6.3811   -1.8749    0.0729 H   0  0  0  0  0  0
    6.1936   -2.1020    1.8037 H   0  0  0  0  0  0
    6.1760   -4.3589   -0.2781 H   0  0  0  0  0  0
    7.5777   -3.8915    0.6691 H   0  0  0  0  0  0
    6.4066   -4.5165    2.7762 H   0  0  0  0  0  0
    4.9592   -4.9364    1.8774 H   0  0  0  0  0  0
    6.1977   -6.7165    0.6473 H   0  0  0  0  0  0
    7.6659   -6.3266    1.5269 H   0  0  0  0  0  0
    6.5910   -6.9623    3.6798 H   0  0  0  0  0  0
    5.0585   -7.2299    2.8672 H   0  0  0  0  0  0
    6.0658   -9.0694    1.5190 H   0  0  0  0  0  0
    7.6162   -8.8287    2.3056 H   0  0  0  0  0  0
    6.6176   -9.3882    4.5193 H   0  0  0  0  0  0
    5.0380   -9.5909    3.7822 H   0  0  0  0  0  0
    7.4979  -11.3013    3.1120 H   0  0  0  0  0  0
    6.2409  -11.7565    4.2495 H   0  0  0  0  0  0
    4.5358  -11.6388    2.3893 H   0  0  0  0  0  0
    5.8215  -11.2863    1.2480 H   0  0  0  0  0  0
    6.9252  -13.4742    1.8062 H   0  0  0  0  0  0
    5.6317  -13.8352    2.9371 H   0  0  0  0  0  0
    3.9636  -13.7395    1.0565 H   0  0  0  0  0  0
    5.2581  -13.3833   -0.0731 H   0  0  0  0  0  0
    4.6765  -15.8218   -0.1456 H   0  0  0  0  0  0
    5.0276  -15.9722    1.5822 H   0  0  0  0  0  0
    6.3318  -15.6136    0.4443 H   0  0  0  0  0  0
  1  2  1  0  0  0
  1 33  1  0  0  0
  1 34  1  0  0  0
  1 35  1  0  0  0
  2  3  1  0  0  0
  2 36  1  0  0  0
  2 37  1  0  0  0
  3  4  1  0  0  0
  3 38  1  0  0  0
  3 39  1  0  0  0
  4  5  1  0  0  0
  4 40  1  0  0  0
  4 41  1  0  0  0
  5  6  1  0  0  0
  5 42  1  0  0  0
  5 43  1  0  0  0
  6  7  1  0  0  0
  6 44  1  0  0  0
  6 45  1  0  0  0
  7  8  1  0  0  0
  7 46  1  0  0  0
  7 47  1  0  0  0
  8  9  1  0  0  0
  8 48  1  0  0  0
  8 49  1  0  0  0
  9 10  1  0  0  0
  9 50  1  0  0  0
  9 51  1  0  0  0
 10 11  1  0  0  0
 10 52  1  0  0  0
 10 53  1  0  0  0
 11 12  1  0  0  0
 11 54  1  0  0  0
 11 55  1  0  0  0
 12 13  1  0  0  0
 12 56  1  0  0  0
 12 57  1  0  0  0
 13 14  1  0  0  0
 13 58  1  0  0  0
 13 59  1  0  0  0
 14 15  1  0  0  0
 14 60  1  0  0  0
 14 61  1  0  0  0
 15 16  1  0  0  0
 15 62  1  0  0  0
 15 63  1  0  0  0
 16 17  1  0  0  0
 16 64  1  0  0  0
 16 65  1  0  0  0
 17 18  1  0  0  0
 17 66  1  0  0  0
 17 67  1  0  0  0
 18 19  1  0  0  0
 18 68  1  0  0  0
 18 69  1  0  0  0
 19 20  1  0  0  0
 19 70  1  0  0  0
 19 71  1  0  0  0
 20 21  1  0  0  0
 20 72  1  0  0  0
 20 73  1  0  0  0
 21 22  1  0  0  0
 21 74  1  0  0  0
 21 75  1  0  0  0
 22 23  1  0  0  0
 22 76  1  0  0  0
 22 77  1  0  0  0
 23 24  1  0  0  0
 23 78  1  0  0  0
 23 79  1  0  0  0
 24 25  1  0  0  0
 24 80  1  0  0  0
 24 81  1  0  0  0
 25 26  1  0  0  0
 25 82  1  0  0  0
 25 83  1  0  0  0
 26 27  1  0  0  0
 26 84  1  0  0  0
 26 85  1  0  0  0
 27 28  1  0  0  0
 27 86  1  0  0  0
 27 87  1  0  0  0
 28 29  1  0  0  0
 28 88  1  0  0  0
 28 89  1  0  0  0
 29 30  1  0  0  0
 29 90  1  0  0  0
 29 91  1  0  0  0
 30 31  1  0  0  0
 30 92  1  0  0  0
 30 93  1  0  0  0
 31 32  1  0  0  0
 31 94  1  0  0  0
 31 95  1  0  0  0
 32 96  1  0  0  0
 32 97  1  0  0  0
 32 98  1  0  0  0
M  END
>  <i_m_Spin_multiplicity> (1)
1

>  <s_j_Task> (1)
Single Point

>  <s_j_QM_Method> (1)
DFT(b3lyp-d3)

>  <s_j_QM_Basis> (1)
cc-pvtz(-f)

>  <i_j_Number_of_canonical_orbitals> (1)
1320

>  <i_j_Geometry_convergence_category> (1)
3

>  <r_j_Gas_Phase_Energy> (1)
-1259.74369411606

>  <r_j_Final_Energy> (1)
-1259.74369411606

>  <r_j_HOMO> (1)
-0.244105940428098

>  <r_j_LUMO> (1)
-0.047990862169415

>  <r_j_Polarizability> (1)
399.259235340407

>  <r_j_QM_Dipole_(debye)> (1)
0.108529611079239

>  <r_j_QM_Dipole_X_(debye)> (1)
0.0146699974321054

>  <r_j_QM_Dipole_Y_(debye)> (1)
0.0974413880316607

>  <r_j_QM_Dipole_Z_(debye)> (1)
0.0454823433303095

>  <r_j_Lowest_Frequency_(cm-1)> (1)
14.8096326041581

>  <r_j_Highest_Frequency_(cm-1)> (1)
3045.45747709737

>  <r_j_2nd_Lowest_Frequency_(cm-1)> (1)
20.9140848273082

>  <i_j_Num_Negative_Frequencies> (1)
0

>  <r_j_Zero_Point_Energy_(kcal/mol)> (1)
583.269601800745

>  <r_j_Entropy_(cal/mol/K)_298.15K_1.00E+00atm> (1)
227.963452822696

>  <r_j_Enthalpy_(kcal/mol)_298.15K_1.00E+00atm> (1)
25.2794335732911

>  <r_j_Free_Energy_(kcal/mol)_298.15K_1.00E+00atm> (1)
-42.6878698857958

>  <r_j_Internal_Energy_(kcal/mol)_298.15K_1.00E+00atm> (1)
24.6869479844638

>  <r_j_Heat_Capacity_(cal/mol/K)_298.15K_1.00E+00atm> (1)
151.894508252937

>  <r_j_ln(Q)_298.15K_1.00E+00atm> (1)
72.048790199757

>  <r_j_Total_Internal_Energy_(au)_298.15K_1.00E+00atm> (1)
-1258.77485367803

>  <r_j_Total_Enthalpy_(au)_298.15K_1.00E+00atm> (1)
-1258.77390949213

>  <r_j_Total_Free_Energy_(au)_298.15K_1.00E+00atm> (1)
-1258.88222228534

>  <r_lp_tautomer_probability> (1)
1

>  <r_epik_Ionization_Penalty> (1)
  0.0000

>  <r_epik_Ionization_Penalty_Charging> (1)
  0.0000

>  <r_epik_Ionization_Penalty_Neutral> (1)
  0.0000

>  <r_epik_State_Penalty> (1)
  0.0000

>  <r_epik_Charging_Adjusted_Penalty> (1)
0

>  <i_epik_Tot_Q> (1)
0

>  <i_epik_Tot_abs_Q> (1)
0

>  <s_lp_Force_Field> (1)
S-OPLS

>  <r_lp_Energy> (1)
17.2206

>  <b_lp_Chiralities_Consistent> (1)
1

$$$$
