1103_Monoterpenes
                    3D
 Schrodinger Suite 2021-3.
 44 43  0  0  1  0            999 V2000
    1.7927    0.6399    1.1914 C   0  0  0  0  0  0
    2.7665   -0.0360    0.1871 C   0  0  0  0  0  0
    3.1083   -1.4744    0.6172 C   0  0  0  0  0  0
    4.0626   -2.1511   -0.3750 N   0  3  1  0  0  0
    4.4479   -3.5848   -0.0115 C   0  0  0  0  0  0
    5.4080   -4.2057   -1.0481 C   0  0  0  0  0  0
    5.7623   -5.6467   -0.6274 C   0  0  0  0  0  0
    6.7099   -6.3139   -1.6145 N   0  3  1  0  0  0
    1.4570    2.0719    0.7364 C   0  0  0  0  0  0
    0.4731    2.7764    1.6806 N   0  3  1  0  0  0
    0.0853    4.1857    1.2113 C   0  0  0  0  0  0
   -1.0240    4.8814    2.0323 C   0  0  0  0  0  0
   -0.5386    5.6820    3.2562 C   0  0  0  0  0  0
   -1.6443    6.5796    3.8003 N   0  3  1  0  0  0
    0.8725    0.0468    1.2628 H   0  0  0  0  0  0
    2.2506    0.6611    2.1880 H   0  0  0  0  0  0
    2.3073   -0.0485   -0.8093 H   0  0  0  0  0  0
    3.6865    0.5577    0.1174 H   0  0  0  0  0  0
    3.6103   -1.5028    1.5877 H   0  0  0  0  0  0
    2.2199   -2.1096    0.6624 H   0  0  0  0  0  0
    3.6325   -2.1437   -1.3088 H   0  0  0  0  0  0
    4.9015   -3.5362    0.9819 H   0  0  0  0  0  0
    3.5114   -4.1443    0.0584 H   0  0  0  0  0  0
    4.9347   -4.2145   -2.0381 H   0  0  0  0  0  0
    6.3234   -3.6043   -1.1172 H   0  0  0  0  0  0
    6.2666   -5.6757    0.3418 H   0  0  0  0  0  0
    4.8773   -6.2863   -0.5793 H   0  0  0  0  0  0
    6.9304   -7.2740   -1.3095 H   0  0  0  0  0  0
    7.6091   -5.8205   -1.6993 H   0  0  0  0  0  0
    2.3455    2.7075    0.6991 H   0  0  0  0  0  0
    0.9812    2.0805   -0.2477 H   0  0  0  0  0  0
   -0.3778    2.2050    1.7599 H   0  0  0  0  0  0
    1.0111    4.7661    1.1836 H   0  0  0  0  0  0
   -0.2621    4.0546    0.1846 H   0  0  0  0  0  0
   -1.4976    5.5724    1.3241 H   0  0  0  0  0  0
   -1.8051    4.1645    2.3161 H   0  0  0  0  0  0
   -0.2283    5.0523    4.0939 H   0  0  0  0  0  0
    0.2862    6.3511    2.9974 H   0  0  0  0  0  0
   -1.3143    7.1166    4.6159 H   0  0  0  0  0  0
   -2.4723    6.0524    4.1095 H   0  0  0  0  0  0
    4.9154   -1.5828   -0.4575 H   0  0  0  0  0  0
   -1.9647    7.2698    3.1062 H   0  0  0  0  0  0
    0.8796    2.8100    2.6229 H   0  0  0  0  0  0
    6.3103   -6.3923   -2.5597 H   0  0  0  0  0  0
  1  2  1  0  0  0
  1  9  1  0  0  0
  1 15  1  0  0  0
  1 16  1  0  0  0
  2  3  1  0  0  0
  2 17  1  0  0  0
  2 18  1  0  0  0
  3  4  1  0  0  0
  3 19  1  0  0  0
  3 20  1  0  0  0
  4  5  1  0  0  0
  4 21  1  0  0  0
  4 41  1  0  0  0
  5  6  1  0  0  0
  5 22  1  0  0  0
  5 23  1  0  0  0
  6  7  1  0  0  0
  6 24  1  0  0  0
  6 25  1  0  0  0
  7  8  1  0  0  0
  7 26  1  0  0  0
  7 27  1  0  0  0
  8 28  1  0  0  0
  8 29  1  0  0  0
  8 44  1  0  0  0
  9 10  1  0  0  0
  9 30  1  0  0  0
  9 31  1  0  0  0
 10 11  1  0  0  0
 10 32  1  0  0  0
 10 43  1  0  0  0
 11 12  1  0  0  0
 11 33  1  0  0  0
 11 34  1  0  0  0
 12 13  1  0  0  0
 12 35  1  0  0  0
 12 36  1  0  0  0
 13 14  1  0  0  0
 13 37  1  0  0  0
 13 38  1  0  0  0
 14 39  1  0  0  0
 14 40  1  0  0  0
 14 42  1  0  0  0
M  END
>  <i_m_Spin_multiplicity> (1)
1

>  <s_j_Task> (1)
Single Point

>  <s_j_QM_Method> (1)
DFT(b3lyp-d3)

>  <s_j_QM_Basis> (1)
cc-pvtz(-f)

>  <i_j_Number_of_canonical_orbitals> (1)
590

>  <i_j_Geometry_convergence_category> (1)
3

>  <r_j_Gas_Phase_Energy> (1)
-616.986053295921

>  <r_j_Final_Energy> (1)
-616.986053295921

>  <r_j_HOMO> (1)
-0.775817298701107

>  <r_j_LUMO> (1)
-0.421839292649927

>  <r_j_Polarizability> (1)
145.304804231493

>  <r_j_QM_Dipole_(debye)> (1)
1.59085373781631

>  <r_j_QM_Dipole_X_(debye)> (1)
0.81364518489525

>  <r_j_QM_Dipole_Y_(debye)> (1)
-0.433663079143382

>  <r_j_QM_Dipole_Z_(debye)> (1)
1.29643104791917

>  <r_j_Lowest_Frequency_(cm-1)> (1)
39.928731320423

>  <r_j_Highest_Frequency_(cm-1)> (1)
3402.0159295708

>  <r_j_2nd_Lowest_Frequency_(cm-1)> (1)
49.5360577361453

>  <i_j_Num_Negative_Frequencies> (1)
0

>  <r_j_Zero_Point_Energy_(kcal/mol)> (1)
271.408547096874

>  <r_j_Entropy_(cal/mol/K)_298.15K_1.00E+00atm> (1)
133.233764209776

>  <r_j_Enthalpy_(kcal/mol)_298.15K_1.00E+00atm> (1)
11.7577558098637

>  <r_j_Free_Energy_(kcal/mol)_298.15K_1.00E+00atm> (1)
-27.9658909892809

>  <r_j_Internal_Energy_(kcal/mol)_298.15K_1.00E+00atm> (1)
11.1652702210364

>  <r_j_Heat_Capacity_(cal/mol/K)_298.15K_1.00E+00atm> (1)
66.3836675868292

>  <r_j_ln(Q)_298.15K_1.00E+00atm> (1)
47.2009640683999

>  <r_j_Total_Internal_Energy_(au)_298.15K_1.00E+00atm> (1)
-616.535743251488

>  <r_j_Total_Enthalpy_(au)_298.15K_1.00E+00atm> (1)
-616.534799065595

>  <r_j_Total_Free_Energy_(au)_298.15K_1.00E+00atm> (1)
-616.598102726653

>  <r_epik_Ionization_Penalty> (1)
  0.0098

>  <r_epik_Ionization_Penalty_Charging> (1)
  0.0098

>  <r_epik_Ionization_Penalty_Neutral> (1)
  0.0000

>  <r_epik_State_Penalty> (1)
  0.0045

>  <r_epik_Charging_Adjusted_Penalty> (1)
0.0142422194916581

>  <i_epik_Tot_Q> (1)
4

>  <i_epik_Tot_abs_Q> (1)
4

>  <s_lp_Force_Field> (1)
S-OPLS

>  <r_lp_Energy> (1)
47.778149

>  <b_lp_Chiralities_Consistent> (1)
1

$$$$
