1105_Squalene
                    3D
 Schrodinger Suite 2021-3.
 80 79  0  0  1  0            999 V2000
   -3.1807   11.3365   -4.1397 C   0  0  0  0  0  0
   -2.6897    9.9130   -4.0232 C   0  0  0  0  0  0
   -2.9907    9.1634   -2.9507 C   0  0  0  0  0  0
   -2.5860    7.7439   -2.6643 C   0  0  0  0  0  0
   -3.7816    6.7779   -2.6701 C   0  0  0  0  0  0
   -3.4741    5.3204   -2.3821 C   0  0  0  0  0  0
   -2.2454    4.8864   -2.0618 C   0  0  0  0  0  0
   -1.8370    3.4677   -1.7593 C   0  0  0  0  0  0
   -1.9066    3.1328   -0.2451 C   0  0  0  0  0  0
   -1.3687    1.7513    0.0643 C   0  0  0  0  0  0
   -0.2010    1.6071    0.7102 C   0  0  0  0  0  0
    0.5736    0.3438    0.9796 C   0  0  0  0  0  0
    2.0333    0.4573    0.4824 C   0  0  0  0  0  0
    2.1299    0.8052   -0.9858 C   0  0  0  0  0  0
    3.2486    0.9279   -1.7129 C   0  0  0  0  0  0
    4.6272    0.6696   -1.1585 C   0  0  0  0  0  0
    3.1888    1.4610   -3.1282 C   0  0  0  0  0  0
    3.7814    2.8965   -3.2484 C   0  0  0  0  0  0
    3.1297    3.8311   -2.2654 C   0  0  0  0  0  0
    3.6910    4.4905   -1.2421 C   0  0  0  0  0  0
    5.1734    4.5046   -0.9497 C   0  0  0  0  0  0
    2.8833    5.2494   -0.2011 C   0  0  0  0  0  0
    1.3928    5.5296   -0.4873 C   0  0  0  0  0  0
    1.1942    6.5607   -1.5675 C   0  0  0  0  0  0
    0.8119    7.8404   -1.4224 C   0  0  0  0  0  0
    0.7660    8.7792   -2.6050 C   0  0  0  0  0  0
    0.4327    8.4874   -0.1127 C   0  0  0  0  0  0
   -2.2076    0.6039   -0.4473 C   0  0  0  0  0  0
   -4.6807    4.4177   -2.4930 C   0  0  0  0  0  0
   -1.8552    9.4476   -5.1911 C   0  0  0  0  0  0
   -2.3385   12.0351   -4.2355 H   0  0  0  0  0  0
   -3.7757   11.6400   -3.2734 H   0  0  0  0  0  0
   -3.7963   11.4689   -5.0396 H   0  0  0  0  0  0
   -3.6144    9.6212   -2.1807 H   0  0  0  0  0  0
   -1.8360    7.3916   -3.3771 H   0  0  0  0  0  0
   -2.1024    7.7047   -1.6800 H   0  0  0  0  0  0
   -4.5366    7.1295   -1.9492 H   0  0  0  0  0  0
   -4.2803    6.8434   -3.6489 H   0  0  0  0  0  0
   -1.4403    5.6125   -1.9731 H   0  0  0  0  0  0
   -2.4509    2.7544   -2.3184 H   0  0  0  0  0  0
   -0.8035    3.3098   -2.0941 H   0  0  0  0  0  0
   -1.3414    3.8917    0.3082 H   0  0  0  0  0  0
   -2.9539    3.2235    0.0757 H   0  0  0  0  0  0
    0.3021    2.5185    1.0407 H   0  0  0  0  0  0
    0.5914    0.1331    2.0584 H   0  0  0  0  0  0
    0.0990   -0.5190    0.5014 H   0  0  0  0  0  0
    2.5431    1.2324    1.0736 H   0  0  0  0  0  0
    2.5596   -0.4801    0.7050 H   0  0  0  0  0  0
    1.1838    1.0466   -1.4677 H   0  0  0  0  0  0
    5.2332    0.0896   -1.8659 H   0  0  0  0  0  0
    4.6022    0.1276   -0.2102 H   0  0  0  0  0  0
    5.1604    1.6125   -0.9841 H   0  0  0  0  0  0
    3.7348    0.8017   -3.8178 H   0  0  0  0  0  0
    2.1460    1.4820   -3.4669 H   0  0  0  0  0  0
    4.8654    2.8561   -3.1093 H   0  0  0  0  0  0
    3.6166    3.2478   -4.2765 H   0  0  0  0  0  0
    2.0476    3.8862   -2.3753 H   0  0  0  0  0  0
    5.5572    5.5330   -0.9668 H   0  0  0  0  0  0
    5.7627    3.9203   -1.6584 H   0  0  0  0  0  0
    5.3742    4.1155    0.0574 H   0  0  0  0  0  0
    2.9601    4.6802    0.7391 H   0  0  0  0  0  0
    3.3774    6.2100    0.0034 H   0  0  0  0  0  0
    0.8904    4.5914   -0.7556 H   0  0  0  0  0  0
    0.9276    5.8552    0.4474 H   0  0  0  0  0  0
    1.4631    6.2316   -2.5703 H   0  0  0  0  0  0
   -0.2131    9.2642   -2.6930 H   0  0  0  0  0  0
    0.9788    8.2647   -3.5465 H   0  0  0  0  0  0
    1.5046    9.5838   -2.4852 H   0  0  0  0  0  0
    1.1100    9.3222    0.1118 H   0  0  0  0  0  0
    0.4550    7.8018    0.7362 H   0  0  0  0  0  0
   -0.5755    8.9170   -0.1753 H   0  0  0  0  0  0
   -3.2450    0.7128   -0.1055 H   0  0  0  0  0  0
   -1.8487   -0.3712   -0.1139 H   0  0  0  0  0  0
   -2.2410    0.5891   -1.5437 H   0  0  0  0  0  0
   -5.4739    4.7544   -1.8127 H   0  0  0  0  0  0
   -4.4623    3.3752   -2.2537 H   0  0  0  0  0  0
   -5.1056    4.4524   -3.5050 H   0  0  0  0  0  0
   -0.9581   10.0717   -5.2975 H   0  0  0  0  0  0
   -2.4183    9.5496   -6.1280 H   0  0  0  0  0  0
   -1.5315    8.4092   -5.1050 H   0  0  0  0  0  0
  1  2  1  0  0  0
  1 31  1  0  0  0
  1 32  1  0  0  0
  1 33  1  0  0  0
  2  3  2  0  0  0
  2 30  1  0  0  0
  3  4  1  0  0  0
  3 34  1  0  0  0
  4  5  1  0  0  0
  4 35  1  0  0  0
  4 36  1  0  0  0
  5  6  1  0  0  0
  5 37  1  0  0  0
  5 38  1  0  0  0
  6  7  2  0  0  0
  6 29  1  0  0  0
  7  8  1  0  0  0
  7 39  1  0  0  0
  8  9  1  0  0  0
  8 40  1  0  0  0
  8 41  1  0  0  0
  9 10  1  0  0  0
  9 42  1  0  0  0
  9 43  1  0  0  0
 10 11  2  0  0  0
 10 28  1  0  0  0
 11 12  1  0  0  0
 11 44  1  0  0  0
 12 13  1  0  0  0
 12 45  1  0  0  0
 12 46  1  0  0  0
 13 14  1  0  0  0
 13 47  1  0  0  0
 13 48  1  0  0  0
 14 15  2  0  0  0
 14 49  1  0  0  0
 15 16  1  0  0  0
 15 17  1  0  0  0
 16 50  1  0  0  0
 16 51  1  0  0  0
 16 52  1  0  0  0
 17 18  1  0  0  0
 17 53  1  0  0  0
 17 54  1  0  0  0
 18 19  1  0  0  0
 18 55  1  0  0  0
 18 56  1  0  0  0
 19 20  2  0  0  0
 19 57  1  0  0  0
 20 21  1  0  0  0
 20 22  1  0  0  0
 21 58  1  0  0  0
 21 59  1  0  0  0
 21 60  1  0  0  0
 22 23  1  0  0  0
 22 61  1  0  0  0
 22 62  1  0  0  0
 23 24  1  0  0  0
 23 63  1  0  0  0
 23 64  1  0  0  0
 24 25  2  0  0  0
 24 65  1  0  0  0
 25 26  1  0  0  0
 25 27  1  0  0  0
 26 66  1  0  0  0
 26 67  1  0  0  0
 26 68  1  0  0  0
 27 69  1  0  0  0
 27 70  1  0  0  0
 27 71  1  0  0  0
 28 72  1  0  0  0
 28 73  1  0  0  0
 28 74  1  0  0  0
 29 75  1  0  0  0
 29 76  1  0  0  0
 29 77  1  0  0  0
 30 78  1  0  0  0
 30 79  1  0  0  0
 30 80  1  0  0  0
M  END
>  <i_m_Spin_multiplicity> (1)
1

>  <s_j_Task> (1)
Single Point

>  <s_j_QM_Method> (1)
DFT(b3lyp-d3)

>  <s_j_QM_Basis> (1)
cc-pvtz(-f)

>  <i_j_Number_of_canonical_orbitals> (1)
1124

>  <i_j_Geometry_convergence_category> (1)
3

>  <r_j_Gas_Phase_Energy> (1)
-1173.7052786874

>  <r_j_Final_Energy> (1)
-1173.7052786874

>  <r_j_HOMO> (1)
-0.166970326066482

>  <r_j_LUMO> (1)
0.023093006564909

>  <r_j_Polarizability> (1)
367.222333372561

>  <r_j_QM_Dipole_(debye)> (1)
0.361349384899011

>  <r_j_QM_Dipole_X_(debye)> (1)
0.11294786305021

>  <r_j_QM_Dipole_Y_(debye)> (1)
0.341476068226013

>  <r_j_QM_Dipole_Z_(debye)> (1)
0.0347886910962157

>  <r_j_Lowest_Frequency_(cm-1)> (1)
29.7951937831511

>  <r_j_Highest_Frequency_(cm-1)> (1)
3111.10832219104

>  <r_j_2nd_Lowest_Frequency_(cm-1)> (1)
35.3103239989697

>  <i_j_Num_Negative_Frequencies> (1)
0

>  <r_j_Zero_Point_Energy_(kcal/mol)> (1)
456.512377696276

>  <r_j_Entropy_(cal/mol/K)_298.15K_1.00E+00atm> (1)
204.08364977919

>  <r_j_Enthalpy_(kcal/mol)_298.15K_1.00E+00atm> (1)
22.509638648564

>  <r_j_Free_Energy_(kcal/mol)_298.15K_1.00E+00atm> (1)
-38.3379015331015

>  <r_j_Internal_Energy_(kcal/mol)_298.15K_1.00E+00atm> (1)
21.9171530597367

>  <r_j_Heat_Capacity_(cal/mol/K)_298.15K_1.00E+00atm> (1)
137.787078506985

>  <r_j_ln(Q)_298.15K_1.00E+00atm> (1)
64.7068928866016

>  <r_j_Total_Internal_Energy_(au)_298.15K_1.00E+00atm> (1)
-1172.94285269444

>  <r_j_Total_Enthalpy_(au)_298.15K_1.00E+00atm> (1)
-1172.94190850855

>  <r_j_Total_Free_Energy_(au)_298.15K_1.00E+00atm> (1)
-1173.03887523669

>  <r_lp_tautomer_probability> (1)
1

>  <r_epik_Ionization_Penalty> (1)
  0.0000

>  <r_epik_Ionization_Penalty_Charging> (1)
  0.0000

>  <r_epik_Ionization_Penalty_Neutral> (1)
  0.0000

>  <r_epik_State_Penalty> (1)
  0.0000

>  <r_epik_Charging_Adjusted_Penalty> (1)
0

>  <i_epik_Tot_Q> (1)
0

>  <i_epik_Tot_abs_Q> (1)
0

>  <s_lp_Force_Field> (1)
S-OPLS

>  <r_lp_Energy> (1)
-17.215809

>  <b_lp_Chiralities_Consistent> (1)
1

$$$$
