11124_Methyl propionate
                    3D
 Schrodinger Suite 2021-3.
 14 13  0  0  1  0            999 V2000
   -0.4978    1.4592   -0.1301 C   0  0  0  0  0  0
   -0.0315    0.0229    0.1545 C   0  0  0  0  0  0
    1.4756   -0.1219    0.1083 C   0  0  0  0  0  0
    2.1792   -0.4997    1.0198 O   0  0  0  0  0  0
    1.9611    0.2343   -1.1060 O   0  0  0  0  0  0
    3.3891    0.1407   -1.2431 C   0  0  0  0  0  0
   -1.5884    1.5244   -0.0802 H   0  0  0  0  0  0
   -0.1758    1.7797   -1.1237 H   0  0  0  0  0  0
   -0.0844    2.1573    0.6046 H   0  0  0  0  0  0
   -0.3527   -0.3118    1.1432 H   0  0  0  0  0  0
   -0.4589   -0.6582   -0.5910 H   0  0  0  0  0  0
    3.6118    0.4694   -2.2583 H   0  0  0  0  0  0
    3.7242   -0.8888   -1.0904 H   0  0  0  0  0  0
    3.8900    0.7815   -0.5124 H   0  0  0  0  0  0
  1  2  1  0  0  0
  1  7  1  0  0  0
  1  8  1  0  0  0
  1  9  1  0  0  0
  2  3  1  0  0  0
  2 10  1  0  0  0
  2 11  1  0  0  0
  3  4  2  0  0  0
  3  5  1  0  0  0
  5  6  1  0  0  0
  6 12  1  0  0  0
  6 13  1  0  0  0
  6 14  1  0  0  0
M  END
>  <i_m_Spin_multiplicity> (1)
1

>  <s_j_Task> (1)
Single Point

>  <s_j_QM_Method> (1)
DFT(b3lyp-d3)

>  <s_j_QM_Basis> (1)
cc-pvtz(-f)

>  <i_j_Number_of_canonical_orbitals> (1)
210

>  <i_j_Geometry_convergence_category> (1)
1

>  <r_j_Gas_Phase_Energy> (1)
-307.822620644909

>  <r_j_Final_Energy> (1)
-307.822620644909

>  <r_j_HOMO> (1)
-0.277667549242185

>  <r_j_LUMO> (1)
0.000957213635132455

>  <r_j_Polarizability> (1)
55.0360059577035

>  <r_j_QM_Dipole_(debye)> (1)
1.90871170564299

>  <r_j_QM_Dipole_X_(debye)> (1)
-0.579761504336383

>  <r_j_QM_Dipole_Y_(debye)> (1)
0.716665409394634

>  <r_j_QM_Dipole_Z_(debye)> (1)
-1.67136102154066

>  <r_j_Lowest_Frequency_(cm-1)> (1)
96.83710703203

>  <r_j_Highest_Frequency_(cm-1)> (1)
3107.57934912014

>  <r_j_2nd_Lowest_Frequency_(cm-1)> (1)
157.846840315518

>  <i_j_Num_Negative_Frequencies> (1)
0

>  <r_j_Zero_Point_Energy_(kcal/mol)> (1)
74.322603245045

>  <r_j_Entropy_(cal/mol/K)_298.15K_1.00E+00atm> (1)
80.6792307393769

>  <r_j_Enthalpy_(kcal/mol)_298.15K_1.00E+00atm> (1)
4.89799497907908

>  <r_j_Free_Energy_(kcal/mol)_298.15K_1.00E+00atm> (1)
-19.1565176658661

>  <r_j_Internal_Energy_(kcal/mol)_298.15K_1.00E+00atm> (1)
4.30550939025181

>  <r_j_Heat_Capacity_(cal/mol/K)_298.15K_1.00E+00atm> (1)
23.6778043421932

>  <r_j_ln(Q)_298.15K_1.00E+00atm> (1)
32.3324617967219

>  <r_j_Total_Internal_Energy_(au)_298.15K_1.00E+00atm> (1)
-307.697318770763

>  <r_j_Total_Enthalpy_(au)_298.15K_1.00E+00atm> (1)
-307.696374584871

>  <r_j_Total_Free_Energy_(au)_298.15K_1.00E+00atm> (1)
-307.734707891052

>  <r_lp_tautomer_probability> (1)
1

>  <r_epik_Ionization_Penalty> (1)
  0.0000

>  <r_epik_Ionization_Penalty_Charging> (1)
  0.0000

>  <r_epik_Ionization_Penalty_Neutral> (1)
  0.0000

>  <r_epik_State_Penalty> (1)
  0.0000

>  <r_epik_Charging_Adjusted_Penalty> (1)
0

>  <i_epik_Tot_Q> (1)
0

>  <i_epik_Tot_abs_Q> (1)
0

>  <s_lp_Force_Field> (1)
S-OPLS

>  <r_lp_Energy> (1)
1.298306

>  <b_lp_Chiralities_Consistent> (1)
1

>  <s_epik_Chemistry_Notes> (1)
This compound has an ester and may undergo hydrolysis at high or low pH.

$$$$
