11138_1,3,5-Benzenetricarboxylic Acid
                    3D
 Schrodinger Suite 2021-3.
 18 18  0  0  1  0            999 V2000
   -0.6929    1.2068    0.0000 C   0  0  0  0  0  0
    0.0342    0.0034    0.0001 C   0  0  0  0  0  0
   -0.6891   -1.2025    0.0000 C   0  0  0  0  0  0
   -2.0950   -1.2300    0.0000 C   0  0  0  0  0  0
   -2.7772   -0.0003    0.0000 C   0  0  0  0  0  0
   -2.0987    1.2313    0.0000 C   0  0  0  0  0  0
   -2.8779    2.5778    0.0000 C   0  0  0  0  0  0
   -4.1427    2.5072    0.0000 O   0  0  0  0  0  0
   -2.1864    3.6391    0.0000 O   0  5  0  0  0  0
   -2.8712   -2.5780    0.0000 C   0  0  0  0  0  0
   -4.1361   -2.5101    0.0001 O   0  0  0  0  0  0
   -2.1773   -3.6378    0.0000 O   0  5  0  0  0  0
    1.5895    0.0065    0.0000 C   0  0  0  0  0  0
    2.1640   -1.1222   -0.0001 O   0  0  0  0  0  0
    2.1596    1.1374    0.0001 O   0  5  0  0  0  0
   -0.1515    2.1471    0.0000 H   0  0  0  0  0  0
   -0.1450   -2.1413    0.0000 H   0  0  0  0  0  0
   -3.8623   -0.0019    0.0000 H   0  0  0  0  0  0
  1  6  1  0  0  0
  1  2  2  0  0  0
  1 16  1  0  0  0
  2  3  1  0  0  0
  2 13  1  0  0  0
  3  4  2  0  0  0
  3 17  1  0  0  0
  4  5  1  0  0  0
  4 10  1  0  0  0
  5  6  2  0  0  0
  5 18  1  0  0  0
  6  7  1  0  0  0
  7  8  2  0  0  0
  7  9  1  0  0  0
 10 11  2  0  0  0
 10 12  1  0  0  0
 13 14  2  0  0  0
 13 15  1  0  0  0
M  END
>  <i_m_Spin_multiplicity> (1)
1

>  <s_j_Task> (1)
Single Point

>  <s_j_QM_Method> (1)
DFT(b3lyp-d3)

>  <s_j_QM_Basis> (1)
cc-pvtz(-f)

>  <i_j_Number_of_canonical_orbitals> (1)
366

>  <i_j_Geometry_convergence_category> (1)
0

>  <r_j_Gas_Phase_Energy> (1)
-796.311865548255

>  <r_j_Final_Energy> (1)
-796.311865548255

>  <r_j_HOMO> (1)
0.170588870033925

>  <r_j_LUMO> (1)
0.354454414816088

>  <r_j_Polarizability> (1)
126.882834471785

>  <r_j_QM_Dipole_(debye)> (1)
0.00258706166531629

>  <r_j_QM_Dipole_X_(debye)> (1)
0.000299647232406946

>  <r_j_QM_Dipole_Y_(debye)> (1)
-0.0025686635944479

>  <r_j_QM_Dipole_Z_(debye)> (1)
-7.11824052554756e-05

>  <r_j_Lowest_Frequency_(cm-1)> (1)
79.9045827962303

>  <r_j_Highest_Frequency_(cm-1)> (1)
3151.74795257502

>  <r_j_2nd_Lowest_Frequency_(cm-1)> (1)
80.9620268220825

>  <i_j_Num_Negative_Frequencies> (1)
0

>  <r_j_Zero_Point_Energy_(kcal/mol)> (1)
66.2301904205585

>  <r_j_Entropy_(cal/mol/K)_298.15K_1.00E+00atm> (1)
108.164882334489

>  <r_j_Enthalpy_(kcal/mol)_298.15K_1.00E+00atm> (1)
7.95617958815736

>  <r_j_Free_Energy_(kcal/mol)_298.15K_1.00E+00atm> (1)
-24.2931800798705

>  <r_j_Internal_Energy_(kcal/mol)_298.15K_1.00E+00atm> (1)
7.36369399933009

>  <r_j_Heat_Capacity_(cal/mol/K)_298.15K_1.00E+00atm> (1)
43.1603683458319

>  <r_j_ln(Q)_298.15K_1.00E+00atm> (1)
41.0021450951318

>  <r_j_Total_Internal_Energy_(au)_298.15K_1.00E+00atm> (1)
-796.194586227482

>  <r_j_Total_Enthalpy_(au)_298.15K_1.00E+00atm> (1)
-796.19364204159

>  <r_j_Total_Free_Energy_(au)_298.15K_1.00E+00atm> (1)
-796.245034667853

>  <r_lp_tautomer_probability> (1)
1

>  <r_epik_Ionization_Penalty> (1)
  0.0017

>  <r_epik_Ionization_Penalty_Charging> (1)
  0.0017

>  <r_epik_Ionization_Penalty_Neutral> (1)
  0.0000

>  <r_epik_State_Penalty> (1)
  0.0000

>  <r_epik_Charging_Adjusted_Penalty> (1)
0.0016565

>  <i_epik_Tot_Q> (1)
-3

>  <i_epik_Tot_abs_Q> (1)
3

>  <s_lp_Force_Field> (1)
S-OPLS

>  <r_lp_Energy> (1)
48.5547

>  <b_lp_Chiralities_Consistent> (1)
1

$$$$
