11167_Methyl isothiocyanate
                    3D
 Schrodinger Suite 2021-3.
  7  6  0  0  1  0            999 V2000
   -0.1548    0.0365   -0.0001 C   0  0  0  0  0  0
    1.1910   -0.4337   -0.0009 N   0  0  0  0  0  0
    1.9886   -1.3188    0.0005 C   0  0  0  0  0  0
    3.1402   -2.4198    0.0002 S   0  0  0  0  0  0
   -0.1655    1.1293    0.0004 H   0  0  0  0  0  0
   -0.6828   -0.3199    0.8913 H   0  0  0  0  0  0
   -0.6831   -0.3189   -0.8916 H   0  0  0  0  0  0
  1  2  1  0  0  0
  1  5  1  0  0  0
  1  6  1  0  0  0
  1  7  1  0  0  0
  2  3  2  0  0  0
  3  4  2  0  0  0
M  END
>  <i_m_Spin_multiplicity> (1)
1

>  <s_j_Task> (1)
Single Point

>  <s_j_QM_Method> (1)
DFT(b3lyp-d3)

>  <s_j_QM_Basis> (1)
cc-pvtz(-f)

>  <i_j_Number_of_canonical_orbitals> (1)
123

>  <i_j_Geometry_convergence_category> (1)
0

>  <r_j_Gas_Phase_Energy> (1)
-531.028009360019

>  <r_j_Final_Energy> (1)
-531.028009360019

>  <r_j_HOMO> (1)
-0.258304982067872

>  <r_j_LUMO> (1)
-0.0308477102102934

>  <r_j_Polarizability> (1)
50.7908410518179

>  <r_j_QM_Dipole_(debye)> (1)
3.47533523115894

>  <r_j_QM_Dipole_X_(debye)> (1)
-3.02414357613408

>  <r_j_QM_Dipole_Y_(debye)> (1)
1.71245730760573

>  <r_j_QM_Dipole_Z_(debye)> (1)
0.000754645161893489

>  <r_j_Lowest_Frequency_(cm-1)> (1)
122.740856218315

>  <r_j_Highest_Frequency_(cm-1)> (1)
3063.39836637952

>  <r_j_2nd_Lowest_Frequency_(cm-1)> (1)
138.775594192079

>  <i_j_Num_Negative_Frequencies> (1)
0

>  <r_j_Zero_Point_Energy_(kcal/mol)> (1)
30.0546490327073

>  <r_j_Entropy_(cal/mol/K)_298.15K_1.00E+00atm> (1)
70.3566409082968

>  <r_j_Enthalpy_(kcal/mol)_298.15K_1.00E+00atm> (1)
3.64331403308207

>  <r_j_Free_Energy_(kcal/mol)_298.15K_1.00E+00atm> (1)
-17.3335184537266

>  <r_j_Internal_Energy_(kcal/mol)_298.15K_1.00E+00atm> (1)
3.0508284442548

>  <r_j_Heat_Capacity_(cal/mol/K)_298.15K_1.00E+00atm> (1)
14.2349585581501

>  <r_j_ln(Q)_298.15K_1.00E+00atm> (1)
29.2555950399324

>  <r_j_Total_Internal_Energy_(au)_298.15K_1.00E+00atm> (1)
-530.975252423176

>  <r_j_Total_Enthalpy_(au)_298.15K_1.00E+00atm> (1)
-530.974308237284

>  <r_j_Total_Free_Energy_(au)_298.15K_1.00E+00atm> (1)
-531.007736947909

>  <r_lp_tautomer_probability> (1)
1

>  <r_epik_Ionization_Penalty> (1)
  0.0000

>  <r_epik_Ionization_Penalty_Charging> (1)
  0.0000

>  <r_epik_Ionization_Penalty_Neutral> (1)
  0.0000

>  <r_epik_State_Penalty> (1)
  0.0000

>  <r_epik_Charging_Adjusted_Penalty> (1)
0

>  <i_epik_Tot_Q> (1)
0

>  <i_epik_Tot_abs_Q> (1)
0

>  <s_lp_Force_Field> (1)
S-OPLS

>  <r_lp_Energy> (1)
-0.083055

>  <b_lp_Chiralities_Consistent> (1)
1

>  <s_epik_Chemistry_Notes> (1)
This compound has an imine and may undergo hydrolysis.

$$$$
