1119_Sulfur dioxide
                    3D
 Schrodinger Suite 2021-3.
  3  2  0  0  1  0            999 V2000
    0.0000    0.0000    1.4879 O   0  0  0  0  0  0
    0.0000    0.0000    0.0000 S   0  0  1  0  0  0
    0.0000    0.0000   -1.4879 O   0  0  0  0  0  0
  1  2  2  0  0  0
  2  3  2  0  0  0
M  END
>  <i_m_Spin_multiplicity> (1)
1

>  <s_j_Task> (1)
Single Point

>  <s_j_QM_Method> (1)
DFT(b3lyp-d3)

>  <s_j_QM_Basis> (1)
cc-pvtz(-f)

>  <i_j_Number_of_canonical_orbitals> (1)
73

>  <r_j_Gas_Phase_Energy> (1)
-548.593731009661

>  <r_j_Final_Energy> (1)
-548.593731009661

>  <r_j_Polarizability> (1)
24.897978998322

>  <r_j_QM_Dipole_(debye)> (1)
0.00509946543166476

>  <r_j_QM_Dipole_X_(debye)> (1)
3.58430455808163e-06

>  <r_j_QM_Dipole_Y_(debye)> (1)
-3.82988437398545e-08

>  <r_j_QM_Dipole_Z_(debye)> (1)
-0.0050994641718555

>  <r_j_Zero_Point_Energy_(kcal/mol)> (1)
2.96514472798198

>  <r_j_Entropy_(cal/mol/K)_298.15K_1.00E+00atm> (1)
52.6433808348171

>  <r_j_Enthalpy_(kcal/mol)_298.15K_1.00E+00atm> (1)
2.12152177036289

>  <r_j_Free_Energy_(kcal/mol)_298.15K_1.00E+00atm> (1)
-13.5741022255378

>  <r_j_Internal_Energy_(kcal/mol)_298.15K_1.00E+00atm> (1)
1.52903618153562

>  <r_j_Heat_Capacity_(cal/mol/K)_298.15K_1.00E+00atm> (1)
5.70885226115104

>  <r_j_ln(Q)_298.15K_1.00E+00atm> (1)
22.9104344164817

>  <r_j_Total_Internal_Energy_(au)_298.15K_1.00E+00atm> (1)
-548.586569076456

>  <r_j_Total_Enthalpy_(au)_298.15K_1.00E+00atm> (1)
-548.585624890564

>  <r_j_Total_Free_Energy_(au)_298.15K_1.00E+00atm> (1)
-548.61063745969

>  <r_j_HOMO> (1)
-0.27733567082852

>  <r_j_LUMO> (1)
-0.139094455500362

>  <r_j_Lowest_Frequency_(cm-1)> (1)
-709.707258225924

>  <r_j_Highest_Frequency_(cm-1)> (1)
1199.59148728702

>  <r_j_2nd_Lowest_Frequency_(cm-1)> (1)
-709.7049573836

>  <i_j_Num_Negative_Frequencies> (1)
2

>  <i_j_Geometry_convergence_category> (1)
0

$$$$
