11197_Tetracosanoic acid
                    3D
 Schrodinger Suite 2021-3.
 73 72  0  0  1  0            999 V2000
  -11.3133    8.2924   -0.5830 C   0  0  0  0  0  0
  -10.5925    6.9740   -0.2871 C   0  0  0  0  0  0
   -9.0649    7.0926   -0.3536 C   0  0  0  0  0  0
   -8.3433    5.7720   -0.0636 C   0  0  0  0  0  0
   -6.8147    5.8724   -0.1279 C   0  0  0  0  0  0
   -6.1166    4.5361    0.1487 C   0  0  0  0  0  0
   -4.5862    4.6036    0.0843 C   0  0  0  0  0  0
   -3.9222    3.2450    0.3354 C   0  0  0  0  0  0
   -2.3907    3.2694    0.2663 C   0  0  0  0  0  0
   -1.7683    1.8842    0.4771 C   0  0  0  0  0  0
   -0.2373    1.8604    0.3987 C   0  0  0  0  0  0
    0.3396    0.4482    0.5532 C   0  0  0  0  0  0
    1.8683    0.3761    0.4618 C   0  0  0  0  0  0
    2.3996   -1.0599    0.5451 C   0  0  0  0  0  0
    3.9247   -1.1760    0.4394 C   0  0  0  0  0  0
    4.4138   -2.6295    0.4390 C   0  0  0  0  0  0
    5.9348   -2.7816    0.3211 C   0  0  0  0  0  0
    6.3883   -4.2440    0.2322 C   0  0  0  0  0  0
    7.9058   -4.4235    0.1091 C   0  0  0  0  0  0
    8.3251   -5.8893   -0.0514 C   0  0  0  0  0  0
    9.8459   -6.0768   -0.1289 C   0  0  0  0  0  0
   10.2881   -7.5224   -0.4241 C   0  0  0  0  0  0
    9.6409   -8.5628    0.5064 C   0  0  0  0  0  0
    9.8003   -8.1336    2.0090 C   0  0  0  0  0  0
    8.7295   -7.9165    2.6362 O   0  0  0  0  0  0
   10.9917   -8.0076    2.3922 O   0  5  0  0  0  0
  -12.4012    8.1786   -0.5280 H   0  0  0  0  0  0
  -11.0666    8.6598   -1.5860 H   0  0  0  0  0  0
  -11.0225    9.0701    0.1328 H   0  0  0  0  0  0
  -10.8830    6.6113    0.7085 H   0  0  0  0  0  0
  -10.9256    6.2053   -0.9979 H   0  0  0  0  0  0
   -8.7721    7.4577   -1.3487 H   0  0  0  0  0  0
   -8.7283    7.8582    0.3603 H   0  0  0  0  0  0
   -8.6404    5.4075    0.9303 H   0  0  0  0  0  0
   -8.6852    5.0093   -0.7782 H   0  0  0  0  0  0
   -6.5148    6.2422   -1.1190 H   0  0  0  0  0  0
   -6.4666    6.6247    0.5943 H   0  0  0  0  0  0
   -6.4208    4.1670    1.1388 H   0  0  0  0  0  0
   -6.4742    3.7877   -0.5733 H   0  0  0  0  0  0
   -4.2787    4.9834   -0.9006 H   0  0  0  0  0  0
   -4.2196    5.3344    0.8193 H   0  0  0  0  0  0
   -4.2336    2.8663    1.3196 H   0  0  0  0  0  0
   -4.3025    2.5198   -0.3986 H   0  0  0  0  0  0
   -2.0756    3.6658   -0.7096 H   0  0  0  0  0  0
   -1.9994    3.9689    1.0189 H   0  0  0  0  0  0
   -2.0867    1.4886    1.4524 H   0  0  0  0  0  0
   -2.1758    1.1922   -0.2742 H   0  0  0  0  0  0
    0.0852    2.2817   -0.5645 H   0  0  0  0  0  0
    0.1817    2.5184    1.1733 H   0  0  0  0  0  0
    0.0141    0.0265    1.5151 H   0  0  0  0  0  0
   -0.0958   -0.2007   -0.2206 H   0  0  0  0  0  0
    2.1985    0.8311   -0.4834 H   0  0  0  0  0  0
    2.3144    0.9832    1.2626 H   0  0  0  0  0  0
    2.0658   -1.5170    1.4877 H   0  0  0  0  0  0
    1.9391   -1.6563   -0.2561 H   0  0  0  0  0  0
    4.2640   -0.6790   -0.4813 H   0  0  0  0  0  0
    4.3935   -0.6280    1.2694 H   0  0  0  0  0  0
    4.0697   -3.1300    1.3554 H   0  0  0  0  0  0
    3.9341   -3.1657   -0.3931 H   0  0  0  0  0  0
    6.2855   -2.2374   -0.5687 H   0  0  0  0  0  0
    6.4189   -2.2975    1.1816 H   0  0  0  0  0  0
    6.0339   -4.7927    1.1155 H   0  0  0  0  0  0
    5.8978   -4.7163   -0.6324 H   0  0  0  0  0  0
    8.2727   -3.8316   -0.7449 H   0  0  0  0  0  0
    8.3930   -4.0045    1.0013 H   0  0  0  0  0  0
    7.9580   -6.4718    0.8025 H   0  0  0  0  0  0
    7.8514   -6.2997   -0.9580 H   0  0  0  0  0  0
   10.2680   -5.4000   -0.8900 H   0  0  0  0  0  0
   10.2822   -5.7868    0.8345 H   0  0  0  0  0  0
   10.0771   -7.7628   -1.4797 H   0  0  0  0  0  0
   11.3742   -7.5783   -0.2862 H   0  0  0  0  0  0
    8.5784   -8.6920    0.2674 H   0  0  0  0  0  0
   10.1386   -9.5306    0.3505 H   0  0  0  0  0  0
  1  2  1  0  0  0
  1 27  1  0  0  0
  1 28  1  0  0  0
  1 29  1  0  0  0
  2  3  1  0  0  0
  2 30  1  0  0  0
  2 31  1  0  0  0
  3  4  1  0  0  0
  3 32  1  0  0  0
  3 33  1  0  0  0
  4  5  1  0  0  0
  4 34  1  0  0  0
  4 35  1  0  0  0
  5  6  1  0  0  0
  5 36  1  0  0  0
  5 37  1  0  0  0
  6  7  1  0  0  0
  6 38  1  0  0  0
  6 39  1  0  0  0
  7  8  1  0  0  0
  7 40  1  0  0  0
  7 41  1  0  0  0
  8  9  1  0  0  0
  8 42  1  0  0  0
  8 43  1  0  0  0
  9 10  1  0  0  0
  9 44  1  0  0  0
  9 45  1  0  0  0
 10 11  1  0  0  0
 10 46  1  0  0  0
 10 47  1  0  0  0
 11 12  1  0  0  0
 11 48  1  0  0  0
 11 49  1  0  0  0
 12 13  1  0  0  0
 12 50  1  0  0  0
 12 51  1  0  0  0
 13 14  1  0  0  0
 13 52  1  0  0  0
 13 53  1  0  0  0
 14 15  1  0  0  0
 14 54  1  0  0  0
 14 55  1  0  0  0
 15 16  1  0  0  0
 15 56  1  0  0  0
 15 57  1  0  0  0
 16 17  1  0  0  0
 16 58  1  0  0  0
 16 59  1  0  0  0
 17 18  1  0  0  0
 17 60  1  0  0  0
 17 61  1  0  0  0
 18 19  1  0  0  0
 18 62  1  0  0  0
 18 63  1  0  0  0
 19 20  1  0  0  0
 19 64  1  0  0  0
 19 65  1  0  0  0
 20 21  1  0  0  0
 20 66  1  0  0  0
 20 67  1  0  0  0
 21 22  1  0  0  0
 21 68  1  0  0  0
 21 69  1  0  0  0
 22 23  1  0  0  0
 22 70  1  0  0  0
 22 71  1  0  0  0
 23 24  1  0  0  0
 23 72  1  0  0  0
 23 73  1  0  0  0
 24 25  2  0  0  0
 24 26  1  0  0  0
M  END
>  <s_lp_Force_Field> (1)
S-OPLS

>  <r_lp_Energy> (1)
10.938041

>  <b_lp_Chiralities_Consistent> (1)
1

>  <r_epik_Ionization_Penalty> (1)
  0.0049

>  <r_epik_Ionization_Penalty_Charging> (1)
  0.0049

>  <r_epik_Ionization_Penalty_Neutral> (1)
  0.0000

>  <r_epik_State_Penalty> (1)
  0.0035

>  <r_epik_Charging_Adjusted_Penalty> (1)
0.00839777765143097

>  <i_epik_Tot_Q> (1)
-1

>  <i_epik_Tot_abs_Q> (1)
1

>  <i_m_Spin_multiplicity> (1)
1

>  <s_j_Task> (1)
Single Point

>  <s_j_QM_Method> (1)
DFT(b3lyp-d3)

>  <s_j_QM_Basis> (1)
6-31g**

>  <i_j_Number_of_canonical_orbitals> (1)
625

>  <i_j_Geometry_convergence_category> (1)
3

>  <r_j_Gas_Phase_Energy> (1)
-1093.53772485391

>  <r_j_Final_Energy> (1)
-1093.53772485391

>  <r_j_HOMO> (1)
-0.0120371531519923

>  <r_j_LUMO> (1)
0.115801328018865

>  <r_j_Polarizability> (1)
273.648816251804

>  <r_j_QM_Dipole_(debye)> (1)
51.9890293830209

>  <r_j_QM_Dipole_X_(debye)> (1)
-39.1060945611854

>  <r_j_QM_Dipole_Y_(debye)> (1)
33.2761650211657

>  <r_j_QM_Dipole_Z_(debye)> (1)
-8.14060107390028

>  <r_j_Lowest_Frequency_(cm-1)> (1)
-18.5474690191792

>  <r_j_Highest_Frequency_(cm-1)> (1)
3105.18223612153

>  <r_j_2nd_Lowest_Frequency_(cm-1)> (1)
10.3570323931055

>  <i_j_Num_Negative_Frequencies> (1)
1

>  <r_j_Zero_Point_Energy_(kcal/mol)> (1)
426.402133390175

>  <r_j_Entropy_(cal/mol/K)_298.15K_1.00E+00atm> (1)
194.106578410762

>  <r_j_Enthalpy_(kcal/mol)_298.15K_1.00E+00atm> (1)
19.9806824829348

>  <r_j_Free_Energy_(kcal/mol)_298.15K_1.00E+00atm> (1)
-37.892193870234

>  <r_j_Internal_Energy_(kcal/mol)_298.15K_1.00E+00atm> (1)
19.3881968941076

>  <r_j_Heat_Capacity_(cal/mol/K)_298.15K_1.00E+00atm> (1)
115.862613821251

>  <r_j_ln(Q)_298.15K_1.00E+00atm> (1)
63.9546253694291

>  <r_j_Total_Internal_Energy_(au)_298.15K_1.00E+00atm> (1)
-1092.82731273808

>  <r_j_Total_Enthalpy_(au)_298.15K_1.00E+00atm> (1)
-1092.82636855219

>  <r_j_Total_Free_Energy_(au)_298.15K_1.00E+00atm> (1)
-1092.91859485174

$$$$
