11229_3,3-dimethylpentane
                    3D
 Schrodinger Suite 2021-3.
 23 22  0  0  1  0            999 V2000
   -0.6763    1.4885    0.0703 C   0  0  0  0  0  0
   -0.0397    0.0962   -0.0281 C   0  0  0  0  0  0
    1.5108    0.0442   -0.0357 C   0  0  0  0  0  0
    2.0740    0.7743   -1.2711 C   0  0  0  0  0  0
    2.0749    0.7083    1.2362 C   0  0  0  0  0  0
    1.9792   -1.4372   -0.0317 C   0  0  0  0  0  0
    1.5572   -2.3038   -1.2248 C   0  0  0  0  0  0
   -1.7681    1.4109    0.0369 H   0  0  0  0  0  0
   -0.3706    2.1357   -0.7580 H   0  0  0  0  0  0
   -0.4141    1.9951    1.0040 H   0  0  0  0  0  0
   -0.3993   -0.5176    0.8097 H   0  0  0  0  0  0
   -0.4113   -0.3870   -0.9398 H   0  0  0  0  0  0
    3.1613    0.6499   -1.3327 H   0  0  0  0  0  0
    1.8699    1.8486   -1.2269 H   0  0  0  0  0  0
    1.6395    0.3942   -2.2013 H   0  0  0  0  0  0
    3.1660    0.6116    1.2723 H   0  0  0  0  0  0
    1.6680    0.2397    2.1399 H   0  0  0  0  0  0
    1.8404    1.7763    1.2766 H   0  0  0  0  0  0
    3.0758   -1.4439    0.0348 H   0  0  0  0  0  0
    1.6189   -1.9080    0.8935 H   0  0  0  0  0  0
    1.9660   -3.3146   -1.1232 H   0  0  0  0  0  0
    1.9233   -1.8977   -2.1730 H   0  0  0  0  0  0
    0.4697   -2.3995   -1.3004 H   0  0  0  0  0  0
  1  2  1  0  0  0
  1  8  1  0  0  0
  1  9  1  0  0  0
  1 10  1  0  0  0
  2  3  1  0  0  0
  2 11  1  0  0  0
  2 12  1  0  0  0
  3  4  1  0  0  0
  3  5  1  0  0  0
  3  6  1  0  0  0
  4 13  1  0  0  0
  4 14  1  0  0  0
  4 15  1  0  0  0
  5 16  1  0  0  0
  5 17  1  0  0  0
  5 18  1  0  0  0
  6  7  1  0  0  0
  6 19  1  0  0  0
  6 20  1  0  0  0
  7 21  1  0  0  0
  7 22  1  0  0  0
  7 23  1  0  0  0
M  END
>  <i_m_Spin_multiplicity> (1)
1

>  <s_j_Task> (1)
Single Point

>  <s_j_QM_Method> (1)
DFT(b3lyp-d3)

>  <s_j_QM_Basis> (1)
cc-pvtz(-f)

>  <i_j_Number_of_canonical_orbitals> (1)
304

>  <i_j_Geometry_convergence_category> (1)
3

>  <r_j_Gas_Phase_Energy> (1)
-276.510775570741

>  <r_j_Final_Energy> (1)
-276.510775570741

>  <r_j_HOMO> (1)
-0.304933330438519

>  <r_j_LUMO> (1)
0.0267278054583255

>  <r_j_Polarizability> (1)
86.176865881147

>  <r_j_QM_Dipole_(debye)> (1)
0.0665220644928783

>  <r_j_QM_Dipole_X_(debye)> (1)
-0.0319942494104558

>  <r_j_QM_Dipole_Y_(debye)> (1)
-0.0582715035580709

>  <r_j_QM_Dipole_Z_(debye)> (1)
-0.00244641413867961

>  <r_j_Lowest_Frequency_(cm-1)> (1)
125.381074876763

>  <r_j_Highest_Frequency_(cm-1)> (1)
3060.4677498413

>  <r_j_2nd_Lowest_Frequency_(cm-1)> (1)
148.622484673036

>  <i_j_Num_Negative_Frequencies> (1)
0

>  <r_j_Zero_Point_Energy_(kcal/mol)> (1)
135.856659714415

>  <r_j_Entropy_(cal/mol/K)_298.15K_1.00E+00atm> (1)
88.2229335492289

>  <r_j_Enthalpy_(kcal/mol)_298.15K_1.00E+00atm> (1)
6.16054628599095

>  <r_j_Free_Energy_(kcal/mol)_298.15K_1.00E+00atm> (1)
-20.1431213517116

>  <r_j_Internal_Energy_(kcal/mol)_298.15K_1.00E+00atm> (1)
5.56806069716368

>  <r_j_Heat_Capacity_(cal/mol/K)_298.15K_1.00E+00atm> (1)
34.7151351589142

>  <r_j_ln(Q)_298.15K_1.00E+00atm> (1)
33.997656198831

>  <r_j_Total_Internal_Energy_(au)_298.15K_1.00E+00atm> (1)
-276.285400931516

>  <r_j_Total_Enthalpy_(au)_298.15K_1.00E+00atm> (1)
-276.284456745624

>  <r_j_Total_Free_Energy_(au)_298.15K_1.00E+00atm> (1)
-276.326374308458

>  <r_lp_tautomer_probability> (1)
1

>  <r_epik_Ionization_Penalty> (1)
  0.0000

>  <r_epik_Ionization_Penalty_Charging> (1)
  0.0000

>  <r_epik_Ionization_Penalty_Neutral> (1)
  0.0000

>  <r_epik_State_Penalty> (1)
  0.0000

>  <r_epik_Charging_Adjusted_Penalty> (1)
0

>  <i_epik_Tot_Q> (1)
0

>  <i_epik_Tot_abs_Q> (1)
0

>  <s_lp_Force_Field> (1)
S-OPLS

>  <r_lp_Energy> (1)
6.66775

>  <b_lp_Chiralities_Consistent> (1)
1

$$$$
