11233_3,3-dimethylhexane
                    3D
 Schrodinger Suite 2021-3.
 26 25  0  0  1  0            999 V2000
   -2.1793    1.4390    0.0194 C   0  0  0  0  0  0
   -0.6488    1.5023    0.0736 C   0  0  0  0  0  0
   -0.0111    0.1093   -0.0324 C   0  0  0  0  0  0
    1.5383    0.0427   -0.0396 C   0  0  0  0  0  0
    2.1094    0.7596   -1.2793 C   0  0  0  0  0  0
    2.1103    0.7068    1.2289 C   0  0  0  0  0  0
    1.9925   -1.4435   -0.0282 C   0  0  0  0  0  0
    1.5593   -2.3130   -1.2150 C   0  0  0  0  0  0
   -2.6262    2.4353    0.1023 H   0  0  0  0  0  0
   -2.5776    0.8257    0.8360 H   0  0  0  0  0  0
   -2.5234    0.9958   -0.9223 H   0  0  0  0  0  0
   -0.2861    2.1440   -0.7388 H   0  0  0  0  0  0
   -0.3431    1.9870    1.0083 H   0  0  0  0  0  0
   -0.3797   -0.5061    0.8016 H   0  0  0  0  0  0
   -0.3884   -0.3656   -0.9474 H   0  0  0  0  0  0
    3.1952    0.6223   -1.3407 H   0  0  0  0  0  0
    1.9173    1.8362   -1.2416 H   0  0  0  0  0  0
    1.6699    0.3790   -2.2070 H   0  0  0  0  0  0
    3.1998    0.5940    1.2674 H   0  0  0  0  0  0
    1.6948    0.2502    2.1348 H   0  0  0  0  0  0
    1.8913    1.7783    1.2620 H   0  0  0  0  0  0
    3.0891   -1.4600    0.0356 H   0  0  0  0  0  0
    1.6300   -1.9053    0.9006 H   0  0  0  0  0  0
    1.9595   -3.3268   -1.1087 H   0  0  0  0  0  0
    1.9266   -1.9158   -2.1666 H   0  0  0  0  0  0
    0.4708   -2.3991   -1.2870 H   0  0  0  0  0  0
  1  2  1  0  0  0
  1  9  1  0  0  0
  1 10  1  0  0  0
  1 11  1  0  0  0
  2  3  1  0  0  0
  2 12  1  0  0  0
  2 13  1  0  0  0
  3  4  1  0  0  0
  3 14  1  0  0  0
  3 15  1  0  0  0
  4  5  1  0  0  0
  4  6  1  0  0  0
  4  7  1  0  0  0
  5 16  1  0  0  0
  5 17  1  0  0  0
  5 18  1  0  0  0
  6 19  1  0  0  0
  6 20  1  0  0  0
  6 21  1  0  0  0
  7  8  1  0  0  0
  7 22  1  0  0  0
  7 23  1  0  0  0
  8 24  1  0  0  0
  8 25  1  0  0  0
  8 26  1  0  0  0
M  END
>  <i_m_Spin_multiplicity> (1)
1

>  <s_j_Task> (1)
Single Point

>  <s_j_QM_Method> (1)
DFT(b3lyp-d3)

>  <s_j_QM_Basis> (1)
cc-pvtz(-f)

>  <i_j_Number_of_canonical_orbitals> (1)
343

>  <i_j_Geometry_convergence_category> (1)
3

>  <r_j_Gas_Phase_Energy> (1)
-315.840105485288

>  <r_j_Final_Energy> (1)
-315.840105485288

>  <r_j_HOMO> (1)
-0.300560383476965

>  <r_j_LUMO> (1)
0.0273724717024604

>  <r_j_Polarizability> (1)
98.1599866742877

>  <r_j_QM_Dipole_(debye)> (1)
0.0320682663186757

>  <r_j_QM_Dipole_X_(debye)> (1)
0.0270587051514198

>  <r_j_QM_Dipole_Y_(debye)> (1)
0.015335910932261

>  <r_j_QM_Dipole_Z_(debye)> (1)
0.00781089086415877

>  <r_j_Lowest_Frequency_(cm-1)> (1)
123.605593411809

>  <r_j_Highest_Frequency_(cm-1)> (1)
3058.54967262561

>  <r_j_2nd_Lowest_Frequency_(cm-1)> (1)
125.371197630257

>  <i_j_Num_Negative_Frequencies> (1)
0

>  <r_j_Zero_Point_Energy_(kcal/mol)> (1)
153.696866537076

>  <r_j_Entropy_(cal/mol/K)_298.15K_1.00E+00atm> (1)
94.7846906611286

>  <r_j_Enthalpy_(kcal/mol)_298.15K_1.00E+00atm> (1)
6.95800782132482

>  <r_j_Free_Energy_(kcal/mol)_298.15K_1.00E+00atm> (1)
-21.3020476992907

>  <r_j_Internal_Energy_(kcal/mol)_298.15K_1.00E+00atm> (1)
6.36552223249755

>  <r_j_Heat_Capacity_(cal/mol/K)_298.15K_1.00E+00atm> (1)
39.5034890385051

>  <r_j_ln(Q)_298.15K_1.00E+00atm> (1)
35.9536976105267

>  <r_j_Total_Internal_Energy_(au)_298.15K_1.00E+00atm> (1)
-315.585029830781

>  <r_j_Total_Enthalpy_(au)_298.15K_1.00E+00atm> (1)
-315.584085644888

>  <r_j_Total_Free_Energy_(au)_298.15K_1.00E+00atm> (1)
-315.629120910286

>  <r_lp_tautomer_probability> (1)
1

>  <r_epik_Ionization_Penalty> (1)
  0.0000

>  <r_epik_Ionization_Penalty_Charging> (1)
  0.0000

>  <r_epik_Ionization_Penalty_Neutral> (1)
  0.0000

>  <r_epik_State_Penalty> (1)
  0.0000

>  <r_epik_Charging_Adjusted_Penalty> (1)
0

>  <i_epik_Tot_Q> (1)
0

>  <i_epik_Tot_abs_Q> (1)
0

>  <s_lp_Force_Field> (1)
S-OPLS

>  <r_lp_Energy> (1)
7.24148

>  <b_lp_Chiralities_Consistent> (1)
1

$$$$
