11255_2,2,3-trimethylpentane
                    3D
 Schrodinger Suite 2021-3.
 26 25  0  0  1  0            999 V2000
   -0.6466    1.4822    0.1860 C   0  0  0  0  0  0
   -0.0750    0.1230   -0.2356 C   0  0  0  0  0  0
    1.4655    0.0321   -0.1239 C   0  0  0  0  0  0
    2.1201    0.8380   -1.2608 C   0  0  0  0  0  0
    1.9942   -1.4417   -0.0228 C   0  0  0  0  0  0
    1.4622   -2.3196   -1.1726 C   0  0  0  0  0  0
    1.5569   -2.0580    1.3231 C   0  0  0  0  0  0
    3.5368   -1.4597   -0.0586 C   0  0  0  0  0  0
   -1.7379    1.4956    0.0964 H   0  0  0  0  0  0
   -0.2588    2.3017   -0.4276 H   0  0  0  0  0  0
   -0.3952    1.7043    1.2296 H   0  0  0  0  0  0
   -0.5454   -0.6495    0.3818 H   0  0  0  0  0  0
   -0.3741   -0.0940   -1.2695 H   0  0  0  0  0  0
    1.7529    0.5156    0.8231 H   0  0  0  0  0  0
    1.9684    0.3526   -2.2315 H   0  0  0  0  0  0
    3.1952    0.9645   -1.1127 H   0  0  0  0  0  0
    1.6859    1.8397   -1.3285 H   0  0  0  0  0  0
    1.8860   -3.3281   -1.1084 H   0  0  0  0  0  0
    1.7332   -1.9122   -2.1522 H   0  0  0  0  0  0
    0.3730   -2.4177   -1.1380 H   0  0  0  0  0  0
    0.4690   -2.1054    1.4271 H   0  0  0  0  0  0
    1.9491   -1.4771    2.1658 H   0  0  0  0  0  0
    1.9368   -3.0812    1.4181 H   0  0  0  0  0  0
    3.9110   -2.4659    0.1608 H   0  0  0  0  0  0
    3.9588   -0.7771    0.6885 H   0  0  0  0  0  0
    3.9291   -1.1723   -1.0383 H   0  0  0  0  0  0
  1  2  1  0  0  0
  1  9  1  0  0  0
  1 10  1  0  0  0
  1 11  1  0  0  0
  2  3  1  0  0  0
  2 12  1  0  0  0
  2 13  1  0  0  0
  3  4  1  0  0  0
  3  5  1  0  0  0
  3 14  1  0  0  0
  4 15  1  0  0  0
  4 16  1  0  0  0
  4 17  1  0  0  0
  5  6  1  0  0  0
  5  7  1  0  0  0
  5  8  1  0  0  0
  6 18  1  0  0  0
  6 19  1  0  0  0
  6 20  1  0  0  0
  7 21  1  0  0  0
  7 22  1  0  0  0
  7 23  1  0  0  0
  8 24  1  0  0  0
  8 25  1  0  0  0
  8 26  1  0  0  0
M  END
>  <i_m_Spin_multiplicity> (1)
1

>  <s_j_Task> (1)
Single Point

>  <s_j_QM_Method> (1)
DFT(b3lyp-d3)

>  <s_j_QM_Basis> (1)
cc-pvtz(-f)

>  <i_j_Number_of_canonical_orbitals> (1)
343

>  <i_j_Geometry_convergence_category> (1)
3

>  <r_j_Gas_Phase_Energy> (1)
-315.838645686419

>  <r_j_Final_Energy> (1)
-315.838645686419

>  <r_j_HOMO> (1)
-0.30334989443775

>  <r_j_LUMO> (1)
0.0208159061851177

>  <r_j_Polarizability> (1)
97.6109257015628

>  <r_j_QM_Dipole_(debye)> (1)
0.0504057690842178

>  <r_j_QM_Dipole_X_(debye)> (1)
-0.0452601884653885

>  <r_j_QM_Dipole_Y_(debye)> (1)
-0.00391096929220059

>  <r_j_QM_Dipole_Z_(debye)> (1)
0.0218394417567039

>  <r_j_Lowest_Frequency_(cm-1)> (1)
101.72888140071

>  <r_j_Highest_Frequency_(cm-1)> (1)
3068.80132667819

>  <r_j_2nd_Lowest_Frequency_(cm-1)> (1)
136.612609415364

>  <i_j_Num_Negative_Frequencies> (1)
0

>  <r_j_Zero_Point_Energy_(kcal/mol)> (1)
153.553221321558

>  <r_j_Entropy_(cal/mol/K)_298.15K_1.00E+00atm> (1)
93.4966621588635

>  <r_j_Enthalpy_(kcal/mol)_298.15K_1.00E+00atm> (1)
6.88708303509714

>  <r_j_Free_Energy_(kcal/mol)_298.15K_1.00E+00atm> (1)
-20.988946787568

>  <r_j_Internal_Energy_(kcal/mol)_298.15K_1.00E+00atm> (1)
6.29459744626986

>  <r_j_Heat_Capacity_(cal/mol/K)_298.15K_1.00E+00atm> (1)
39.9597803732207

>  <r_j_ln(Q)_298.15K_1.00E+00atm> (1)
35.4252443998041

>  <r_j_Total_Internal_Energy_(au)_298.15K_1.00E+00atm> (1)
-315.583911970978

>  <r_j_Total_Enthalpy_(au)_298.15K_1.00E+00atm> (1)
-315.582967785085

>  <r_j_Total_Free_Energy_(au)_298.15K_1.00E+00atm> (1)
-315.627391066574

>  <r_lp_tautomer_probability> (1)
1

>  <r_epik_Ionization_Penalty> (1)
  0.0000

>  <r_epik_Ionization_Penalty_Charging> (1)
  0.0000

>  <r_epik_Ionization_Penalty_Neutral> (1)
  0.0000

>  <r_epik_State_Penalty> (1)
  0.0000

>  <r_epik_Charging_Adjusted_Penalty> (1)
0

>  <i_epik_Tot_Q> (1)
0

>  <i_epik_Tot_abs_Q> (1)
0

>  <s_lp_Force_Field> (1)
S-OPLS

>  <r_lp_Energy> (1)
9.06455

>  <b_lp_Chiralities_Consistent> (1)
1

$$$$
