11260_2,3-dimethylpentane
                    3D
 Schrodinger Suite 2021-3.
 23 22  0  0  1  0            999 V2000
   -2.1142   -0.7551    1.3250 C   0  0  0  0  0  0
   -0.5842   -0.7586    1.2154 C   0  0  0  0  0  0
   -0.0177   -0.0279   -0.0223 C   0  0  0  0  0  0
   -0.5426   -0.6659   -1.3195 C   0  0  0  0  0  0
    1.5360    0.0308    0.0052 C   0  0  0  0  0  0
    2.0731    0.7663    1.2456 C   0  0  0  0  0  0
    2.1197    0.6892   -1.2570 C   0  0  0  0  0  0
   -2.4356   -1.1775    2.2827 H   0  0  0  0  0  0
   -2.5905   -1.3428    0.5347 H   0  0  0  0  0  0
   -2.5094    0.2659    1.2636 H   0  0  0  0  0  0
   -0.1823   -0.2977    2.1231 H   0  0  0  0  0  0
   -0.2181   -1.7956    1.2118 H   0  0  0  0  0  0
   -0.3803    1.0129    0.0120 H   0  0  0  0  0  0
   -0.1578   -1.6876   -1.4313 H   0  0  0  0  0  0
   -0.2476   -0.0983   -2.2052 H   0  0  0  0  0  0
   -1.6342   -0.7198   -1.3263 H   0  0  0  0  0  0
    1.9006   -1.0080    0.0411 H   0  0  0  0  0  0
    1.6775    1.7889    1.2895 H   0  0  0  0  0  0
    3.1653    0.8370    1.2100 H   0  0  0  0  0  0
    1.8114    0.2663    2.1812 H   0  0  0  0  0  0
    1.7071    1.6966   -1.3961 H   0  0  0  0  0  0
    1.9135    0.1147   -2.1633 H   0  0  0  0  0  0
    3.2072    0.7872   -1.1736 H   0  0  0  0  0  0
  1  2  1  0  0  0
  1  8  1  0  0  0
  1  9  1  0  0  0
  1 10  1  0  0  0
  2  3  1  0  0  0
  2 11  1  0  0  0
  2 12  1  0  0  0
  3  4  1  0  0  0
  3  5  1  0  0  0
  3 13  1  0  0  0
  4 14  1  0  0  0
  4 15  1  0  0  0
  4 16  1  0  0  0
  5  6  1  0  0  0
  5  7  1  0  0  0
  5 17  1  0  0  0
  6 18  1  0  0  0
  6 19  1  0  0  0
  6 20  1  0  0  0
  7 21  1  0  0  0
  7 22  1  0  0  0
  7 23  1  0  0  0
M  END
>  <i_m_Spin_multiplicity> (1)
1

>  <s_j_Task> (1)
Single Point

>  <s_j_QM_Method> (1)
DFT(b3lyp-d3)

>  <s_j_QM_Basis> (1)
cc-pvtz(-f)

>  <i_j_Number_of_canonical_orbitals> (1)
304

>  <i_j_Geometry_convergence_category> (1)
0

>  <r_j_Gas_Phase_Energy> (1)
-276.5093883592

>  <r_j_Final_Energy> (1)
-276.5093883592

>  <r_j_HOMO> (1)
-0.307103200867945

>  <r_j_LUMO> (1)
0.0281426884155379

>  <r_j_Polarizability> (1)
86.7250846744142

>  <r_j_QM_Dipole_(debye)> (1)
0.0783560303194738

>  <r_j_QM_Dipole_X_(debye)> (1)
0.030317965849002

>  <r_j_QM_Dipole_Y_(debye)> (1)
-0.0384230665661473

>  <r_j_QM_Dipole_Z_(debye)> (1)
0.0611895120903776

>  <r_j_Lowest_Frequency_(cm-1)> (1)
87.1565940190112

>  <r_j_Highest_Frequency_(cm-1)> (1)
3072.97260047302

>  <r_j_2nd_Lowest_Frequency_(cm-1)> (1)
123.433462899322

>  <i_j_Num_Negative_Frequencies> (1)
0

>  <r_j_Zero_Point_Energy_(kcal/mol)> (1)
135.892356403794

>  <r_j_Entropy_(cal/mol/K)_298.15K_1.00E+00atm> (1)
89.4747278966904

>  <r_j_Enthalpy_(kcal/mol)_298.15K_1.00E+00atm> (1)
6.23092224251371

>  <r_j_Free_Energy_(kcal/mol)_298.15K_1.00E+00atm> (1)
-20.4459678798845

>  <r_j_Internal_Energy_(kcal/mol)_298.15K_1.00E+00atm> (1)
5.63843665368643

>  <r_j_Heat_Capacity_(cal/mol/K)_298.15K_1.00E+00atm> (1)
34.4609425323864

>  <r_j_ln(Q)_298.15K_1.00E+00atm> (1)
34.5088020121365

>  <r_j_Total_Internal_Energy_(au)_298.15K_1.00E+00atm> (1)
-276.283844682453

>  <r_j_Total_Enthalpy_(au)_298.15K_1.00E+00atm> (1)
-276.282900496561

>  <r_j_Total_Free_Energy_(au)_298.15K_1.00E+00atm> (1)
-276.325412827287

>  <r_lp_tautomer_probability> (1)
1

>  <r_epik_Ionization_Penalty> (1)
  0.0000

>  <r_epik_Ionization_Penalty_Charging> (1)
  0.0000

>  <r_epik_Ionization_Penalty_Neutral> (1)
  0.0000

>  <r_epik_State_Penalty> (1)
  0.0000

>  <r_epik_Charging_Adjusted_Penalty> (1)
0

>  <i_epik_Tot_Q> (1)
0

>  <i_epik_Tot_abs_Q> (1)
0

>  <s_lp_Force_Field> (1)
S-OPLS

>  <r_lp_Energy> (1)
5.72358

>  <b_lp_Chiralities_Consistent> (1)
1

$$$$
