11263471_1,4-Heptadiyne
                    3D
 Schrodinger Suite 2021-3.
 15 14  0  0  1  0            999 V2000
   -0.5202    1.4297    0.0032 C   0  0  0  0  0  0
    0.0551    0.0004   -0.0138 C   0  0  0  0  0  0
    1.5193   -0.0186   -0.0044 C   0  0  0  0  0  0
    2.7268    0.0056    0.0053 C   0  0  0  0  0  0
    4.1952    0.0387    0.0184 C   0  0  0  0  0  0
    4.7411    1.3403    0.4293 C   0  0  0  0  0  0
    5.1959    2.4058    0.7656 C   0  0  0  0  0  0
   -1.6143    1.4013   -0.0049 H   0  0  0  0  0  0
   -0.1821    1.9939   -0.8705 H   0  0  0  0  0  0
   -0.1944    1.9675    0.8979 H   0  0  0  0  0  0
   -0.3213   -0.5587    0.8528 H   0  0  0  0  0  0
   -0.3093   -0.5333   -0.9014 H   0  0  0  0  0  0
    4.5788   -0.7402    0.6927 H   0  0  0  0  0  0
    4.5818   -0.2133   -0.9794 H   0  0  0  0  0  0
    5.5913    3.3490    1.0633 H   0  0  0  0  0  0
  1  2  1  0  0  0
  1  8  1  0  0  0
  1  9  1  0  0  0
  1 10  1  0  0  0
  2  3  1  0  0  0
  2 11  1  0  0  0
  2 12  1  0  0  0
  3  4  3  0  0  0
  4  5  1  0  0  0
  5  6  1  0  0  0
  5 13  1  0  0  0
  5 14  1  0  0  0
  6  7  3  0  0  0
  7 15  1  0  0  0
M  END
>  <i_m_Spin_multiplicity> (1)
1

>  <s_j_Task> (1)
Single Point

>  <s_j_QM_Method> (1)
DFT(b3lyp-d3)

>  <s_j_QM_Basis> (1)
cc-pvtz(-f)

>  <i_j_Number_of_canonical_orbitals> (1)
229

>  <i_j_Geometry_convergence_category> (1)
3

>  <r_j_Gas_Phase_Energy> (1)
-271.525628574474

>  <r_j_Final_Energy> (1)
-271.525628574474

>  <r_j_HOMO> (1)
-0.256067395087592

>  <r_j_LUMO> (1)
0.0232712045402457

>  <r_j_Polarizability> (1)
77.9590838876378

>  <r_j_QM_Dipole_(debye)> (1)
0.72949927518014

>  <r_j_QM_Dipole_X_(debye)> (1)
-0.593923973540271

>  <r_j_QM_Dipole_Y_(debye)> (1)
-0.393025192600185

>  <r_j_QM_Dipole_Z_(debye)> (1)
-0.157970579932064

>  <r_j_Lowest_Frequency_(cm-1)> (1)
88.7602072460687

>  <r_j_Highest_Frequency_(cm-1)> (1)
3423.49217153741

>  <r_j_2nd_Lowest_Frequency_(cm-1)> (1)
108.520445337934

>  <i_j_Num_Negative_Frequencies> (1)
0

>  <r_j_Zero_Point_Energy_(kcal/mol)> (1)
77.0076302762189

>  <r_j_Entropy_(cal/mol/K)_298.15K_1.00E+00atm> (1)
86.2889979137557

>  <r_j_Enthalpy_(kcal/mol)_298.15K_1.00E+00atm> (1)
5.54975266985631

>  <r_j_Free_Energy_(kcal/mol)_298.15K_1.00E+00atm> (1)
-20.17731205813

>  <r_j_Internal_Energy_(kcal/mol)_298.15K_1.00E+00atm> (1)
4.95726708102904

>  <r_j_Heat_Capacity_(cal/mol/K)_298.15K_1.00E+00atm> (1)
28.290713739207

>  <r_j_ln(Q)_298.15K_1.00E+00atm> (1)
34.0553634360416

>  <r_j_Total_Internal_Energy_(au)_298.15K_1.00E+00atm> (1)
-271.395009195363

>  <r_j_Total_Enthalpy_(au)_298.15K_1.00E+00atm> (1)
-271.394065009471

>  <r_j_Total_Free_Energy_(au)_298.15K_1.00E+00atm> (1)
-271.435063697073

>  <r_lp_tautomer_probability> (1)
1

>  <r_epik_Ionization_Penalty> (1)
  0.0000

>  <r_epik_Ionization_Penalty_Charging> (1)
  0.0000

>  <r_epik_Ionization_Penalty_Neutral> (1)
  0.0000

>  <r_epik_State_Penalty> (1)
  0.0000

>  <r_epik_Charging_Adjusted_Penalty> (1)
0

>  <i_epik_Tot_Q> (1)
0

>  <i_epik_Tot_abs_Q> (1)
0

>  <s_lp_Force_Field> (1)
S-OPLS

>  <r_lp_Energy> (1)
-0.332636

>  <b_lp_Chiralities_Consistent> (1)
1

$$$$
