11269_2,3,4-trimethylpentane
                    3D
 Schrodinger Suite 2021-3.
 26 25  0  0  1  0            999 V2000
   -0.7077   -0.6974    1.2009 C   0  0  0  0  0  0
   -0.0291   -0.0686   -0.0261 C   0  0  0  0  0  0
   -0.5595   -0.7105   -1.3187 C   0  0  0  0  0  0
    1.5257   -0.0876    0.0473 C   0  0  0  0  0  0
    2.0911   -1.5197    0.0221 C   0  0  0  0  0  0
    2.0973    0.7194    1.2484 C   0  0  0  0  0  0
    1.4919    2.1285    1.3610 C   0  0  0  0  0  0
    3.6302    0.8344    1.1782 C   0  0  0  0  0  0
   -0.4580   -1.7600    1.2938 H   0  0  0  0  0  0
   -1.7974   -0.6242    1.1178 H   0  0  0  0  0  0
   -0.4140   -0.2032    2.1321 H   0  0  0  0  0  0
   -0.3302    0.9853   -0.0650 H   0  0  0  0  0  0
   -0.4288   -1.7978   -1.3209 H   0  0  0  0  0  0
   -0.0502   -0.3099   -2.2026 H   0  0  0  0  0  0
   -1.6312   -0.5142   -1.4319 H   0  0  0  0  0  0
    1.8761    0.4227   -0.8647 H   0  0  0  0  0  0
    1.8828   -2.0454    0.9607 H   0  0  0  0  0  0
    3.1741   -1.5212   -0.1213 H   0  0  0  0  0  0
    1.6629   -2.1103   -0.7919 H   0  0  0  0  0  0
    1.8502    0.1713    2.1695 H   0  0  0  0  0  0
    1.6241    2.6853    0.4249 H   0  0  0  0  0  0
    1.9855    2.6974    2.1559 H   0  0  0  0  0  0
    0.4232    2.1095    1.5902 H   0  0  0  0  0  0
    3.9402    1.3236    0.2462 H   0  0  0  0  0  0
    4.1267   -0.1379    1.2271 H   0  0  0  0  0  0
    4.0109    1.4369    2.0097 H   0  0  0  0  0  0
  1  2  1  0  0  0
  1  9  1  0  0  0
  1 10  1  0  0  0
  1 11  1  0  0  0
  2  3  1  0  0  0
  2  4  1  0  0  0
  2 12  1  0  0  0
  3 13  1  0  0  0
  3 14  1  0  0  0
  3 15  1  0  0  0
  4  5  1  0  0  0
  4  6  1  0  0  0
  4 16  1  0  0  0
  5 17  1  0  0  0
  5 18  1  0  0  0
  5 19  1  0  0  0
  6  7  1  0  0  0
  6  8  1  0  0  0
  6 20  1  0  0  0
  7 21  1  0  0  0
  7 22  1  0  0  0
  7 23  1  0  0  0
  8 24  1  0  0  0
  8 25  1  0  0  0
  8 26  1  0  0  0
M  END
>  <i_m_Spin_multiplicity> (1)
1

>  <s_j_Task> (1)
Single Point

>  <s_j_QM_Method> (1)
DFT(b3lyp-d3)

>  <s_j_QM_Basis> (1)
cc-pvtz(-f)

>  <i_j_Number_of_canonical_orbitals> (1)
343

>  <i_j_Geometry_convergence_category> (1)
1

>  <r_j_Gas_Phase_Energy> (1)
-315.838633495389

>  <r_j_Final_Energy> (1)
-315.838633495389

>  <r_j_HOMO> (1)
-0.302244211821719

>  <r_j_LUMO> (1)
0.0249726287531592

>  <r_j_Polarizability> (1)
97.592108158722

>  <r_j_QM_Dipole_(debye)> (1)
0.0937324433853175

>  <r_j_QM_Dipole_X_(debye)> (1)
-0.0344758899434512

>  <r_j_QM_Dipole_Y_(debye)> (1)
0.0799481286297678

>  <r_j_QM_Dipole_Z_(debye)> (1)
0.034720032894381

>  <r_j_Lowest_Frequency_(cm-1)> (1)
98.4865201668791

>  <r_j_Highest_Frequency_(cm-1)> (1)
3073.31748182278

>  <r_j_2nd_Lowest_Frequency_(cm-1)> (1)
109.336967659654

>  <i_j_Num_Negative_Frequencies> (1)
0

>  <r_j_Zero_Point_Energy_(kcal/mol)> (1)
153.728265155869

>  <r_j_Entropy_(cal/mol/K)_298.15K_1.00E+00atm> (1)
94.3346292989108

>  <r_j_Enthalpy_(kcal/mol)_298.15K_1.00E+00atm> (1)
6.93903382781015

>  <r_j_Free_Energy_(kcal/mol)_298.15K_1.00E+00atm> (1)
-21.1868358976601

>  <r_j_Internal_Energy_(kcal/mol)_298.15K_1.00E+00atm> (1)
6.34654823898288

>  <r_j_Heat_Capacity_(cal/mol/K)_298.15K_1.00E+00atm> (1)
39.666881861581

>  <r_j_ln(Q)_298.15K_1.00E+00atm> (1)
35.7592425827536

>  <r_j_Total_Internal_Energy_(au)_298.15K_1.00E+00atm> (1)
-315.583538040981

>  <r_j_Total_Enthalpy_(au)_298.15K_1.00E+00atm> (1)
-315.582593855089

>  <r_j_Total_Free_Energy_(au)_298.15K_1.00E+00atm> (1)
-315.627415281808

>  <r_lp_tautomer_probability> (1)
1

>  <r_epik_Ionization_Penalty> (1)
  0.0000

>  <r_epik_Ionization_Penalty_Charging> (1)
  0.0000

>  <r_epik_Ionization_Penalty_Neutral> (1)
  0.0000

>  <r_epik_State_Penalty> (1)
  0.0000

>  <r_epik_Charging_Adjusted_Penalty> (1)
0

>  <i_epik_Tot_Q> (1)
0

>  <i_epik_Tot_abs_Q> (1)
0

>  <s_lp_Force_Field> (1)
S-OPLS

>  <r_lp_Energy> (1)
7.53837

>  <b_lp_Chiralities_Consistent> (1)
1

$$$$
