11287_1,8-dimethylnaphthalene
                    3D
 Schrodinger Suite 2021-3.
 24 25  0  0  1  0            999 V2000
   -0.0371   -0.2931   -0.0001 C   0  0  0  0  0  0
    1.4631   -0.0337    0.0000 C   0  0  0  0  0  0
    2.1244    1.2485    0.0000 C   0  0  0  0  0  0
    1.4892    2.5499    0.0000 C   0  0  0  0  0  0
    2.2742    3.6888    0.0000 C   0  0  0  0  0  0
    3.6827    3.6543    0.0000 C   0  0  0  0  0  0
    4.3177    2.4430   -0.0001 C   0  0  0  0  0  0
    3.5739    1.2328   -0.0001 C   0  0  0  0  0  0
    4.2924    0.0114    0.0000 C   0  0  0  0  0  0
    3.6310   -1.1897    0.0001 C   0  0  0  0  0  0
    2.2263   -1.1918    0.0001 C   0  0  0  0  0  0
   -0.0072    2.7922    0.0001 C   0  0  0  0  0  0
   -0.6628    0.5876   -0.0005 H   0  0  0  0  0  0
   -0.3110   -0.8857    0.8800 H   0  0  0  0  0  0
   -0.3108   -0.8862   -0.8800 H   0  0  0  0  0  0
    1.7804    4.6568    0.0000 H   0  0  0  0  0  0
    4.2478    4.5815    0.0000 H   0  0  0  0  0  0
    5.4028    2.3822   -0.0001 H   0  0  0  0  0  0
    5.3784    0.0497   -0.0001 H   0  0  0  0  0  0
    4.1773   -2.1280    0.0001 H   0  0  0  0  0  0
    1.7056   -2.1467    0.0001 H   0  0  0  0  0  0
   -0.2062    3.8671    0.0002 H   0  0  0  0  0  0
   -0.4973    2.3751    0.8854 H   0  0  0  0  0  0
   -0.4974    2.3753   -0.8852 H   0  0  0  0  0  0
  1  2  1  0  0  0
  1 13  1  0  0  0
  1 14  1  0  0  0
  1 15  1  0  0  0
  2 11  1  0  0  0
  2  3  2  0  0  0
  3  8  1  0  0  0
  3  4  1  0  0  0
  4  5  2  0  0  0
  4 12  1  0  0  0
  5  6  1  0  0  0
  5 16  1  0  0  0
  6  7  2  0  0  0
  6 17  1  0  0  0
  7  8  1  0  0  0
  7 18  1  0  0  0
  8  9  2  0  0  0
  9 10  1  0  0  0
  9 19  1  0  0  0
 10 11  2  0  0  0
 10 20  1  0  0  0
 11 21  1  0  0  0
 12 22  1  0  0  0
 12 23  1  0  0  0
 12 24  1  0  0  0
M  END
>  <i_m_Spin_multiplicity> (1)
1

>  <s_j_Task> (1)
Single Point

>  <s_j_QM_Method> (1)
DFT(b3lyp-d3)

>  <s_j_QM_Basis> (1)
cc-pvtz(-f)

>  <i_j_Number_of_canonical_orbitals> (1)
375

>  <i_j_Geometry_convergence_category> (1)
0

>  <r_j_Gas_Phase_Energy> (1)
-464.671667636098

>  <r_j_Final_Energy> (1)
-464.671667636098

>  <r_j_HOMO> (1)
-0.203828593392096

>  <r_j_LUMO> (1)
-0.0372759729901413

>  <r_j_Polarizability> (1)
138.20284600864

>  <r_j_QM_Dipole_(debye)> (1)
0.642113223794587

>  <r_j_QM_Dipole_X_(debye)> (1)
-0.641815490526202

>  <r_j_QM_Dipole_Y_(debye)> (1)
-0.0195515028762222

>  <r_j_QM_Dipole_Z_(debye)> (1)
-8.38317936494077e-05

>  <r_j_Lowest_Frequency_(cm-1)> (1)
-89.732184786199

>  <r_j_Highest_Frequency_(cm-1)> (1)
3206.07306648995

>  <r_j_2nd_Lowest_Frequency_(cm-1)> (1)
70.5729844224432

>  <i_j_Num_Negative_Frequencies> (1)
1

>  <r_j_Zero_Point_Energy_(kcal/mol)> (1)
126.825874901757

>  <r_j_Entropy_(cal/mol/K)_298.15K_1.00E+00atm> (1)
91.8318683533446

>  <r_j_Enthalpy_(kcal/mol)_298.15K_1.00E+00atm> (1)
6.21193239011284

>  <r_j_Free_Energy_(kcal/mol)_298.15K_1.00E+00atm> (1)
-21.1677391594368

>  <r_j_Internal_Energy_(kcal/mol)_298.15K_1.00E+00atm> (1)
5.61944680128557

>  <r_j_Heat_Capacity_(cal/mol/K)_298.15K_1.00E+00atm> (1)
38.0053644956298

>  <r_j_ln(Q)_298.15K_1.00E+00atm> (1)
35.7270110169849

>  <r_j_Total_Internal_Energy_(au)_298.15K_1.00E+00atm> (1)
-464.460602579657

>  <r_j_Total_Enthalpy_(au)_298.15K_1.00E+00atm> (1)
-464.459658393765

>  <r_j_Total_Free_Energy_(au)_298.15K_1.00E+00atm> (1)
-464.503290677991

>  <r_lp_tautomer_probability> (1)
1

>  <r_epik_Ionization_Penalty> (1)
  0.0000

>  <r_epik_Ionization_Penalty_Charging> (1)
  0.0000

>  <r_epik_Ionization_Penalty_Neutral> (1)
  0.0000

>  <r_epik_State_Penalty> (1)
  0.0000

>  <r_epik_Charging_Adjusted_Penalty> (1)
0

>  <i_epik_Tot_Q> (1)
0

>  <i_epik_Tot_abs_Q> (1)
0

>  <s_lp_Force_Field> (1)
S-OPLS

>  <r_lp_Energy> (1)
32.812127

>  <b_lp_Chiralities_Consistent> (1)
1

$$$$
