11304_1,4-dimethylnaphthalene
                    3D
 Schrodinger Suite 2021-3.
 24 25  0  0  1  0            999 V2000
   -0.0377    0.0167    0.0007 C   0  0  0  0  0  0
    1.4721   -0.0112    0.0003 C   0  0  0  0  0  0
    2.1923    1.1636   -0.0003 C   0  0  0  0  0  0
    3.6016    1.1652   -0.0007 C   0  0  0  0  0  0
    4.3360   -0.0028   -0.0002 C   0  0  0  0  0  0
    3.6302   -1.2508    0.0001 C   0  0  0  0  0  0
    4.2943   -2.5100    0.0004 C   0  0  0  0  0  0
    3.5990   -3.6970    0.0002 C   0  0  0  0  0  0
    2.1877   -3.6923   -0.0004 C   0  0  0  0  0  0
    1.5062   -2.4975   -0.0004 C   0  0  0  0  0  0
    2.1890   -1.2497    0.0000 C   0  0  0  0  0  0
    5.8482    0.1024    0.0001 C   0  0  0  0  0  0
   -0.4075    1.0454    0.0030 H   0  0  0  0  0  0
   -0.4525   -0.4887    0.8809 H   0  0  0  0  0  0
   -0.4520   -0.4844   -0.8820 H   0  0  0  0  0  0
    1.6644    2.1140   -0.0006 H   0  0  0  0  0  0
    4.1249    2.1187   -0.0012 H   0  0  0  0  0  0
    5.3775   -2.5423    0.0008 H   0  0  0  0  0  0
    4.1377   -4.6402    0.0005 H   0  0  0  0  0  0
    1.6419   -4.6313   -0.0008 H   0  0  0  0  0  0
    0.4218   -2.5067   -0.0009 H   0  0  0  0  0  0
    6.3582   -0.8605    0.0017 H   0  0  0  0  0  0
    6.1944    0.6549    0.8806 H   0  0  0  0  0  0
    6.1949    0.6523   -0.8820 H   0  0  0  0  0  0
  1  2  1  0  0  0
  1 13  1  0  0  0
  1 14  1  0  0  0
  1 15  1  0  0  0
  2 11  1  0  0  0
  2  3  2  0  0  0
  3  4  1  0  0  0
  3 16  1  0  0  0
  4  5  2  0  0  0
  4 17  1  0  0  0
  5  6  1  0  0  0
  5 12  1  0  0  0
  6 11  1  0  0  0
  6  7  2  0  0  0
  7  8  1  0  0  0
  7 18  1  0  0  0
  8  9  2  0  0  0
  8 19  1  0  0  0
  9 10  1  0  0  0
  9 20  1  0  0  0
 10 11  2  0  0  0
 10 21  1  0  0  0
 12 22  1  0  0  0
 12 23  1  0  0  0
 12 24  1  0  0  0
M  END
>  <i_m_Spin_multiplicity> (1)
1

>  <s_j_Task> (1)
Single Point

>  <s_j_QM_Method> (1)
DFT(b3lyp-d3)

>  <s_j_QM_Basis> (1)
cc-pvtz(-f)

>  <i_j_Number_of_canonical_orbitals> (1)
374

>  <i_j_Geometry_convergence_category> (1)
0

>  <r_j_Gas_Phase_Energy> (1)
-464.682913011198

>  <r_j_Final_Energy> (1)
-464.682913011198

>  <r_j_HOMO> (1)
-0.217412139251765

>  <r_j_LUMO> (1)
-0.0518769034586479

>  <r_j_Polarizability> (1)
138.625113525971

>  <r_j_QM_Dipole_(debye)> (1)
0.172170157757496

>  <r_j_QM_Dipole_X_(debye)> (1)
0.0658773153747337

>  <r_j_QM_Dipole_Y_(debye)> (1)
0.159067510196502

>  <r_j_QM_Dipole_Z_(debye)> (1)
-0.000519366098784223

>  <r_j_Lowest_Frequency_(cm-1)> (1)
42.9339031133863

>  <r_j_Highest_Frequency_(cm-1)> (1)
3162.20116783991

>  <r_j_2nd_Lowest_Frequency_(cm-1)> (1)
131.682797053846

>  <i_j_Num_Negative_Frequencies> (1)
0

>  <r_j_Zero_Point_Energy_(kcal/mol)> (1)
126.721496123939

>  <r_j_Entropy_(cal/mol/K)_298.15K_1.00E+00atm> (1)
95.8742140221582

>  <r_j_Enthalpy_(kcal/mol)_298.15K_1.00E+00atm> (1)
6.77061302316723

>  <r_j_Free_Energy_(kcal/mol)_298.15K_1.00E+00atm> (1)
-21.8142838875393

>  <r_j_Internal_Energy_(kcal/mol)_298.15K_1.00E+00atm> (1)
6.17812743433996

>  <r_j_Heat_Capacity_(cal/mol/K)_298.15K_1.00E+00atm> (1)
40.2316712034328

>  <r_j_ln(Q)_298.15K_1.00E+00atm> (1)
36.8182522898438

>  <r_j_Total_Internal_Energy_(au)_298.15K_1.00E+00atm> (1)
-464.471123978663

>  <r_j_Total_Enthalpy_(au)_298.15K_1.00E+00atm> (1)
-464.47017979277

>  <r_j_Total_Free_Energy_(au)_298.15K_1.00E+00atm> (1)
-464.515732725877

>  <r_lp_tautomer_probability> (1)
1

>  <r_epik_Ionization_Penalty> (1)
  0.0000

>  <r_epik_Ionization_Penalty_Charging> (1)
  0.0000

>  <r_epik_Ionization_Penalty_Neutral> (1)
  0.0000

>  <r_epik_State_Penalty> (1)
  0.0000

>  <r_epik_Charging_Adjusted_Penalty> (1)
0

>  <i_epik_Tot_Q> (1)
0

>  <i_epik_Tot_abs_Q> (1)
0

>  <s_lp_Force_Field> (1)
S-OPLS

>  <r_lp_Energy> (1)
24.207

>  <b_lp_Chiralities_Consistent> (1)
1

$$$$
