11328_1,6-Dimethylnaphthalene
                    3D
 Schrodinger Suite 2021-3.
 24 25  0  0  1  0            999 V2000
   -0.0499    0.0355    0.0000 C   0  0  0  0  0  0
    1.4587    0.0385    0.0000 C   0  0  0  0  0  0
    2.1877    1.2064    0.0000 C   0  0  0  0  0  0
    3.6089    1.2103    0.0000 C   0  0  0  0  0  0
    4.3335    2.4287    0.0000 C   0  0  0  0  0  0
    5.7082    2.4205    0.0000 C   0  0  0  0  0  0
    6.4078    1.1961    0.0001 C   0  0  0  0  0  0
    5.7527   -0.0225    0.0000 C   0  0  0  0  0  0
    4.3207   -0.0376    0.0000 C   0  0  0  0  0  0
    3.5411   -1.2299    0.0000 C   0  0  0  0  0  0
    2.1678   -1.1927    0.0000 C   0  0  0  0  0  0
    6.5920   -1.2845    0.0000 C   0  0  0  0  0  0
   -0.4553    1.0511   -0.0001 H   0  0  0  0  0  0
   -0.4439   -0.4851    0.8810 H   0  0  0  0  0  0
   -0.4439   -0.4853   -0.8809 H   0  0  0  0  0  0
    1.6727    2.1648    0.0000 H   0  0  0  0  0  0
    3.7837    3.3660    0.0000 H   0  0  0  0  0  0
    6.2623    3.3550    0.0001 H   0  0  0  0  0  0
    7.4954    1.2090    0.0001 H   0  0  0  0  0  0
    4.0350   -2.1950    0.0000 H   0  0  0  0  0  0
    1.6059   -2.1237    0.0000 H   0  0  0  0  0  0
    6.0045   -2.2026    0.0002 H   0  0  0  0  0  0
    7.2425   -1.3132    0.8812 H   0  0  0  0  0  0
    7.2422   -1.3134   -0.8815 H   0  0  0  0  0  0
  1  2  1  0  0  0
  1 13  1  0  0  0
  1 14  1  0  0  0
  1 15  1  0  0  0
  2 11  1  0  0  0
  2  3  2  0  0  0
  3  4  1  0  0  0
  3 16  1  0  0  0
  4  9  1  0  0  0
  4  5  2  0  0  0
  5  6  1  0  0  0
  5 17  1  0  0  0
  6  7  2  0  0  0
  6 18  1  0  0  0
  7  8  1  0  0  0
  7 19  1  0  0  0
  8  9  2  0  0  0
  8 12  1  0  0  0
  9 10  1  0  0  0
 10 11  2  0  0  0
 10 20  1  0  0  0
 11 21  1  0  0  0
 12 22  1  0  0  0
 12 23  1  0  0  0
 12 24  1  0  0  0
M  END
>  <i_m_Spin_multiplicity> (1)
1

>  <s_j_Task> (1)
Single Point

>  <s_j_QM_Method> (1)
DFT(b3lyp-d3)

>  <s_j_QM_Basis> (1)
cc-pvtz(-f)

>  <i_j_Number_of_canonical_orbitals> (1)
374

>  <i_j_Geometry_convergence_category> (1)
0

>  <r_j_Gas_Phase_Energy> (1)
-464.684268717186

>  <r_j_Final_Energy> (1)
-464.684268717186

>  <r_j_HOMO> (1)
-0.210103153904416

>  <r_j_LUMO> (1)
-0.0397206750861723

>  <r_j_Polarizability> (1)
140.729647662093

>  <r_j_QM_Dipole_(debye)> (1)
0.425941222772931

>  <r_j_QM_Dipole_X_(debye)> (1)
-0.145216212728082

>  <r_j_QM_Dipole_Y_(debye)> (1)
-0.400422496219305

>  <r_j_QM_Dipole_Z_(debye)> (1)
-3.66020875157478e-05

>  <r_j_Lowest_Frequency_(cm-1)> (1)
67.8977280707476

>  <r_j_Highest_Frequency_(cm-1)> (1)
3155.32797281117

>  <r_j_2nd_Lowest_Frequency_(cm-1)> (1)
115.663233827445

>  <i_j_Num_Negative_Frequencies> (1)
0

>  <r_j_Zero_Point_Energy_(kcal/mol)> (1)
126.451882539609

>  <r_j_Entropy_(cal/mol/K)_298.15K_1.00E+00atm> (1)
96.6238442241176

>  <r_j_Enthalpy_(kcal/mol)_298.15K_1.00E+00atm> (1)
6.85561254178541

>  <r_j_Free_Energy_(kcal/mol)_298.15K_1.00E+00atm> (1)
-21.9527866136352

>  <r_j_Internal_Energy_(kcal/mol)_298.15K_1.00E+00atm> (1)
6.26312695295814

>  <r_j_Heat_Capacity_(cal/mol/K)_298.15K_1.00E+00atm> (1)
40.4352914028226

>  <r_j_ln(Q)_298.15K_1.00E+00atm> (1)
37.0520178509102

>  <r_j_Total_Internal_Energy_(au)_298.15K_1.00E+00atm> (1)
-464.472773885892

>  <r_j_Total_Enthalpy_(au)_298.15K_1.00E+00atm> (1)
-464.4718297

>  <r_j_Total_Free_Energy_(au)_298.15K_1.00E+00atm> (1)
-464.517738806608

>  <r_lp_tautomer_probability> (1)
1

>  <r_epik_Ionization_Penalty> (1)
  0.0000

>  <r_epik_Ionization_Penalty_Charging> (1)
  0.0000

>  <r_epik_Ionization_Penalty_Neutral> (1)
  0.0000

>  <r_epik_State_Penalty> (1)
  0.0000

>  <r_epik_Charging_Adjusted_Penalty> (1)
0

>  <i_epik_Tot_Q> (1)
0

>  <i_epik_Tot_abs_Q> (1)
0

>  <s_lp_Force_Field> (1)
S-OPLS

>  <r_lp_Energy> (1)
20.0705

>  <b_lp_Chiralities_Consistent> (1)
1

$$$$
