11326_1,7-dimethylnaphthalene
                    3D
 Schrodinger Suite 2021-3.
 24 25  0  0  1  0            999 V2000
   -0.0207   -0.0194   -0.0006 C   0  0  0  0  0  0
    1.4885    0.0086    0.0000 C   0  0  0  0  0  0
    2.1912    1.1963   -0.0002 C   0  0  0  0  0  0
    3.6129    1.2357    0.0001 C   0  0  0  0  0  0
    4.3507    2.4642    0.0003 C   0  0  0  0  0  0
    5.7305    2.4154   -0.0004 C   0  0  0  0  0  0
    6.4331    1.1880   -0.0009 C   0  0  0  0  0  0
    5.7448   -0.0007   -0.0004 C   0  0  0  0  0  0
    4.3255   -0.0064    0.0001 C   0  0  0  0  0  0
    3.5857   -1.2188    0.0006 C   0  0  0  0  0  0
    2.2126   -1.2140    0.0006 C   0  0  0  0  0  0
    3.6328    3.7924    0.0008 C   0  0  0  0  0  0
   -0.4436    0.9890   -0.0017 H   0  0  0  0  0  0
   -0.4064   -0.5458    0.8807 H   0  0  0  0  0  0
   -0.4057   -0.5475   -0.8810 H   0  0  0  0  0  0
    1.6376    2.1297   -0.0007 H   0  0  0  0  0  0
    6.2933    3.3455   -0.0006 H   0  0  0  0  0  0
    7.5192    1.1932   -0.0015 H   0  0  0  0  0  0
    6.2739   -0.9502   -0.0005 H   0  0  0  0  0  0
    4.1300   -2.1597    0.0010 H   0  0  0  0  0  0
    1.6651   -2.1534    0.0011 H   0  0  0  0  0  0
    4.3440    4.6225    0.0018 H   0  0  0  0  0  0
    2.9888    3.9019    0.8815 H   0  0  0  0  0  0
    2.9907    3.9025   -0.8809 H   0  0  0  0  0  0
  1  2  1  0  0  0
  1 13  1  0  0  0
  1 14  1  0  0  0
  1 15  1  0  0  0
  2 11  1  0  0  0
  2  3  2  0  0  0
  3  4  1  0  0  0
  3 16  1  0  0  0
  4  9  1  0  0  0
  4  5  2  0  0  0
  5  6  1  0  0  0
  5 12  1  0  0  0
  6  7  2  0  0  0
  6 17  1  0  0  0
  7  8  1  0  0  0
  7 18  1  0  0  0
  8  9  2  0  0  0
  8 19  1  0  0  0
  9 10  1  0  0  0
 10 11  2  0  0  0
 10 20  1  0  0  0
 11 21  1  0  0  0
 12 22  1  0  0  0
 12 23  1  0  0  0
 12 24  1  0  0  0
M  END
>  <i_m_Spin_multiplicity> (1)
1

>  <s_j_Task> (1)
Single Point

>  <s_j_QM_Method> (1)
DFT(b3lyp-d3)

>  <s_j_QM_Basis> (1)
cc-pvtz(-f)

>  <i_j_Number_of_canonical_orbitals> (1)
374

>  <i_j_Geometry_convergence_category> (1)
0

>  <r_j_Gas_Phase_Energy> (1)
-464.687372899387

>  <r_j_Final_Energy> (1)
-464.687372899387

>  <r_j_HOMO> (1)
-0.210307608232907

>  <r_j_LUMO> (1)
-0.0389921482229285

>  <r_j_Polarizability> (1)
140.263279131963

>  <r_j_QM_Dipole_(debye)> (1)
0.598910380881035

>  <r_j_QM_Dipole_X_(debye)> (1)
-0.578786168290641

>  <r_j_QM_Dipole_Y_(debye)> (1)
0.153948312802666

>  <r_j_QM_Dipole_Z_(debye)> (1)
-0.000364290703612607

>  <r_j_Lowest_Frequency_(cm-1)> (1)
115.983937399304

>  <r_j_Highest_Frequency_(cm-1)> (1)
3142.01787432608

>  <r_j_2nd_Lowest_Frequency_(cm-1)> (1)
175.26776388119

>  <i_j_Num_Negative_Frequencies> (1)
0

>  <r_j_Zero_Point_Energy_(kcal/mol)> (1)
126.718706395516

>  <r_j_Entropy_(cal/mol/K)_298.15K_1.00E+00atm> (1)
94.6440653030494

>  <r_j_Enthalpy_(kcal/mol)_298.15K_1.00E+00atm> (1)
6.66958193045353

>  <r_j_Free_Energy_(kcal/mol)_298.15K_1.00E+00atm> (1)
-21.5485461396507

>  <r_j_Internal_Energy_(kcal/mol)_298.15K_1.00E+00atm> (1)
6.07709634162626

>  <r_j_Heat_Capacity_(cal/mol/K)_298.15K_1.00E+00atm> (1)
40.1433763940785

>  <r_j_ln(Q)_298.15K_1.00E+00atm> (1)
36.3697388527245

>  <r_j_Total_Internal_Energy_(au)_298.15K_1.00E+00atm> (1)
-464.475749315862

>  <r_j_Total_Enthalpy_(au)_298.15K_1.00E+00atm> (1)
-464.474805129969

>  <r_j_Total_Free_Energy_(au)_298.15K_1.00E+00atm> (1)
-464.519773579721

>  <r_lp_tautomer_probability> (1)
1

>  <r_epik_Ionization_Penalty> (1)
  0.0000

>  <r_epik_Ionization_Penalty_Charging> (1)
  0.0000

>  <r_epik_Ionization_Penalty_Neutral> (1)
  0.0000

>  <r_epik_State_Penalty> (1)
  0.0000

>  <r_epik_Charging_Adjusted_Penalty> (1)
0

>  <i_epik_Tot_Q> (1)
0

>  <i_epik_Tot_abs_Q> (1)
0

>  <s_lp_Force_Field> (1)
S-OPLS

>  <r_lp_Energy> (1)
17.8632

>  <b_lp_Chiralities_Consistent> (1)
1

$$$$
