11387_2,6-dimethylnaphthalene
                    3D
 Schrodinger Suite 2021-3.
 24 25  0  0  1  0            999 V2000
   -0.0290   -0.0044   -0.0001 C   0  0  0  0  0  0
    1.4798    0.0270    0.0000 C   0  0  0  0  0  0
    2.1845    1.2111    0.0000 C   0  0  0  0  0  0
    3.6054    1.2364    0.0000 C   0  0  0  0  0  0
    4.3250   -0.0001    0.0001 C   0  0  0  0  0  0
    3.5801   -1.2120    0.0000 C   0  0  0  0  0  0
    2.2072   -1.1970    0.0000 C   0  0  0  0  0  0
    5.7420    0.0249    0.0000 C   0  0  0  0  0  0
    6.4486    1.2123    0.0000 C   0  0  0  0  0  0
    5.7220    2.4319    0.0000 C   0  0  0  0  0  0
    4.3455    2.4456    0.0000 C   0  0  0  0  0  0
    7.9609    1.2175   -0.0001 C   0  0  0  0  0  0
   -0.4540    1.0031    0.0000 H   0  0  0  0  0  0
   -0.4134   -0.5326    0.8808 H   0  0  0  0  0  0
   -0.4134   -0.5325   -0.8810 H   0  0  0  0  0  0
    1.6503    2.1586    0.0000 H   0  0  0  0  0  0
    4.1159   -2.1582    0.0001 H   0  0  0  0  0  0
    1.6564   -2.1347    0.0000 H   0  0  0  0  0  0
    6.2779   -0.9226    0.0000 H   0  0  0  0  0  0
    6.2701    3.3706    0.0000 H   0  0  0  0  0  0
    3.8077    3.3905    0.0000 H   0  0  0  0  0  0
    8.3592    2.2361    0.0000 H   0  0  0  0  0  0
    8.3604    0.7038   -0.8818 H   0  0  0  0  0  0
    8.3605    0.7038    0.8816 H   0  0  0  0  0  0
  1  2  1  0  0  0
  1 13  1  0  0  0
  1 14  1  0  0  0
  1 15  1  0  0  0
  2  7  1  0  0  0
  2  3  2  0  0  0
  3  4  1  0  0  0
  3 16  1  0  0  0
  4 11  1  0  0  0
  4  5  2  0  0  0
  5  6  1  0  0  0
  5  8  1  0  0  0
  6  7  2  0  0  0
  6 17  1  0  0  0
  7 18  1  0  0  0
  8  9  2  0  0  0
  8 19  1  0  0  0
  9 10  1  0  0  0
  9 12  1  0  0  0
 10 11  2  0  0  0
 10 20  1  0  0  0
 11 21  1  0  0  0
 12 22  1  0  0  0
 12 23  1  0  0  0
 12 24  1  0  0  0
M  END
>  <i_m_Spin_multiplicity> (1)
1

>  <s_j_Task> (1)
Single Point

>  <s_j_QM_Method> (1)
DFT(b3lyp-d3)

>  <s_j_QM_Basis> (1)
cc-pvtz(-f)

>  <i_j_Number_of_canonical_orbitals> (1)
374

>  <i_j_Geometry_convergence_category> (1)
3

>  <r_j_Gas_Phase_Energy> (1)
-464.687133303917

>  <r_j_Final_Energy> (1)
-464.687133303917

>  <r_j_HOMO> (1)
-0.210729330532512

>  <r_j_LUMO> (1)
-0.0399596174859477

>  <r_j_Polarizability> (1)
143.107251936194

>  <r_j_QM_Dipole_(debye)> (1)
0.0812084380073426

>  <r_j_QM_Dipole_X_(debye)> (1)
0.0144940269125048

>  <r_j_QM_Dipole_Y_(debye)> (1)
-0.0799045173627574

>  <r_j_QM_Dipole_Z_(debye)> (1)
4.11397227233058e-05

>  <r_j_Lowest_Frequency_(cm-1)> (1)
98.333256601177

>  <r_j_Highest_Frequency_(cm-1)> (1)
3130.864186217

>  <r_j_2nd_Lowest_Frequency_(cm-1)> (1)
154.215803494231

>  <i_j_Num_Negative_Frequencies> (1)
0

>  <r_j_Zero_Point_Energy_(kcal/mol)> (1)
126.371991048872

>  <r_j_Entropy_(cal/mol/K)_298.15K_1.00E+00atm> (1)
95.952630416246

>  <r_j_Enthalpy_(kcal/mol)_298.15K_1.00E+00atm> (1)
6.81394454939351

>  <r_j_Free_Energy_(kcal/mol)_298.15K_1.00E+00atm> (1)
-21.7943322092102

>  <r_j_Internal_Energy_(kcal/mol)_298.15K_1.00E+00atm> (1)
6.22145896056623

>  <r_j_Heat_Capacity_(cal/mol/K)_298.15K_1.00E+00atm> (1)
40.421784199405

>  <r_j_ln(Q)_298.15K_1.00E+00atm> (1)
36.7845777520909

>  <r_j_Total_Internal_Energy_(au)_298.15K_1.00E+00atm> (1)
-464.475832189992

>  <r_j_Total_Enthalpy_(au)_298.15K_1.00E+00atm> (1)
-464.4748880041

>  <r_j_Total_Free_Energy_(au)_298.15K_1.00E+00atm> (1)
-464.520478195366

>  <r_lp_tautomer_probability> (1)
1

>  <r_epik_Ionization_Penalty> (1)
  0.0000

>  <r_epik_Ionization_Penalty_Charging> (1)
  0.0000

>  <r_epik_Ionization_Penalty_Neutral> (1)
  0.0000

>  <r_epik_State_Penalty> (1)
  0.0000

>  <r_epik_Charging_Adjusted_Penalty> (1)
0

>  <i_epik_Tot_Q> (1)
0

>  <i_epik_Tot_abs_Q> (1)
0

>  <s_lp_Force_Field> (1)
S-OPLS

>  <r_lp_Energy> (1)
14.0661

>  <b_lp_Chiralities_Consistent> (1)
1

$$$$
