11386_2,3-Dimethylnaphthalene
                    3D
 Schrodinger Suite 2021-3.
 24 25  0  0  1  0            999 V2000
   -0.0160    0.0313   -0.0013 C   0  0  0  0  0  0
    1.4932    0.0217   -0.0001 C   0  0  0  0  0  0
    2.2017    1.2037    0.0000 C   0  0  0  0  0  0
    3.6201    1.2359    0.0001 C   0  0  0  0  0  0
    4.3552    2.4504    0.0010 C   0  0  0  0  0  0
    5.7317    2.4398    0.0008 C   0  0  0  0  0  0
    6.4359    1.2111   -0.0005 C   0  0  0  0  0  0
    5.7499    0.0175   -0.0012 C   0  0  0  0  0  0
    4.3303   -0.0041   -0.0006 C   0  0  0  0  0  0
    3.5837   -1.2108   -0.0004 C   0  0  0  0  0  0
    2.2055   -1.2231    0.0004 C   0  0  0  0  0  0
    1.4480   -2.5280    0.0017 C   0  0  0  0  0  0
   -0.4052    1.0529   -0.0008 H   0  0  0  0  0  0
   -0.4229   -0.4836    0.8774 H   0  0  0  0  0  0
   -0.4212   -0.4820   -0.8817 H   0  0  0  0  0  0
    1.6648    2.1498   -0.0001 H   0  0  0  0  0  0
    3.8113    3.3918    0.0019 H   0  0  0  0  0  0
    6.2837    3.3754    0.0017 H   0  0  0  0  0  0
    7.5221    1.2151   -0.0008 H   0  0  0  0  0  0
    6.2880   -0.9271   -0.0022 H   0  0  0  0  0  0
    4.1274   -2.1529   -0.0007 H   0  0  0  0  0  0
    2.1301   -3.3822    0.0011 H   0  0  0  0  0  0
    0.7979   -2.6161   -0.8769 H   0  0  0  0  0  0
    0.7995   -2.6159    0.8818 H   0  0  0  0  0  0
  1  2  1  0  0  0
  1 13  1  0  0  0
  1 14  1  0  0  0
  1 15  1  0  0  0
  2 11  1  0  0  0
  2  3  2  0  0  0
  3  4  1  0  0  0
  3 16  1  0  0  0
  4  9  1  0  0  0
  4  5  2  0  0  0
  5  6  1  0  0  0
  5 17  1  0  0  0
  6  7  2  0  0  0
  6 18  1  0  0  0
  7  8  1  0  0  0
  7 19  1  0  0  0
  8  9  2  0  0  0
  8 20  1  0  0  0
  9 10  1  0  0  0
 10 11  2  0  0  0
 10 21  1  0  0  0
 11 12  1  0  0  0
 12 22  1  0  0  0
 12 23  1  0  0  0
 12 24  1  0  0  0
M  END
>  <i_m_Spin_multiplicity> (1)
1

>  <s_j_Task> (1)
Single Point

>  <s_j_QM_Method> (1)
DFT(b3lyp-d3)

>  <s_j_QM_Basis> (1)
cc-pvtz(-f)

>  <i_j_Number_of_canonical_orbitals> (1)
374

>  <i_j_Geometry_convergence_category> (1)
3

>  <r_j_Gas_Phase_Energy> (1)
-464.687941712059

>  <r_j_Final_Energy> (1)
-464.687941712059

>  <r_j_HOMO> (1)
-0.213162255539722

>  <r_j_LUMO> (1)
-0.0388387720995227

>  <r_j_Polarizability> (1)
141.593224357272

>  <r_j_QM_Dipole_(debye)> (1)
0.895821418741339

>  <r_j_QM_Dipole_X_(debye)> (1)
-0.77823593160246

>  <r_j_QM_Dipole_Y_(debye)> (1)
-0.443672005458505

>  <r_j_QM_Dipole_Z_(debye)> (1)
-2.47188960426748e-05

>  <r_j_Lowest_Frequency_(cm-1)> (1)
126.403240382182

>  <r_j_Highest_Frequency_(cm-1)> (1)
3144.65201726967

>  <r_j_2nd_Lowest_Frequency_(cm-1)> (1)
134.81365691194

>  <i_j_Num_Negative_Frequencies> (1)
0

>  <r_j_Zero_Point_Energy_(kcal/mol)> (1)
126.744747571767

>  <r_j_Entropy_(cal/mol/K)_298.15K_1.00E+00atm> (1)
94.2073607712367

>  <r_j_Enthalpy_(kcal/mol)_298.15K_1.00E+00atm> (1)
6.61683439945732

>  <r_j_Free_Energy_(kcal/mol)_298.15K_1.00E+00atm> (1)
-21.4710902144869

>  <r_j_Internal_Energy_(kcal/mol)_298.15K_1.00E+00atm> (1)
6.02434881063005

>  <r_j_Heat_Capacity_(cal/mol/K)_298.15K_1.00E+00atm> (1)
40.0424819206775

>  <r_j_ln(Q)_298.15K_1.00E+00atm> (1)
36.2390083731578

>  <r_j_Total_Internal_Energy_(au)_298.15K_1.00E+00atm> (1)
-464.47636068782

>  <r_j_Total_Enthalpy_(au)_298.15K_1.00E+00atm> (1)
-464.475416501928

>  <r_j_Total_Free_Energy_(au)_298.15K_1.00E+00atm> (1)
-464.520177459263

>  <r_lp_tautomer_probability> (1)
1

>  <r_epik_Ionization_Penalty> (1)
  0.0000

>  <r_epik_Ionization_Penalty_Charging> (1)
  0.0000

>  <r_epik_Ionization_Penalty_Neutral> (1)
  0.0000

>  <r_epik_State_Penalty> (1)
  0.0000

>  <r_epik_Charging_Adjusted_Penalty> (1)
0

>  <i_epik_Tot_Q> (1)
0

>  <i_epik_Tot_abs_Q> (1)
0

>  <s_lp_Force_Field> (1)
S-OPLS

>  <r_lp_Energy> (1)
15.4662

>  <b_lp_Chiralities_Consistent> (1)
1

$$$$
