11396_2,7-Dimethylnaphthalene
                    3D
 Schrodinger Suite 2021-3.
 24 25  0  0  1  0            999 V2000
   -0.0243   -0.0045    0.0000 C   0  0  0  0  0  0
    1.4849    0.0187    0.0000 C   0  0  0  0  0  0
    2.1935    1.2016    0.0000 C   0  0  0  0  0  0
    3.6137    1.2234    0.0000 C   0  0  0  0  0  0
    4.3238   -0.0167    0.0000 C   0  0  0  0  0  0
    3.5795   -1.2257    0.0000 C   0  0  0  0  0  0
    2.2055   -1.2081    0.0000 C   0  0  0  0  0  0
    5.7433    0.0125    0.0000 C   0  0  0  0  0  0
    6.4238    1.2063    0.0000 C   0  0  0  0  0  0
    5.7306    2.4488    0.0000 C   0  0  0  0  0  0
    4.3516    2.4369    0.0000 C   0  0  0  0  0  0
    6.5142    3.7386    0.0000 C   0  0  0  0  0  0
   -0.4437    1.0053    0.0000 H   0  0  0  0  0  0
   -0.4112   -0.5305    0.8810 H   0  0  0  0  0  0
   -0.4112   -0.5306   -0.8809 H   0  0  0  0  0  0
    1.6612    2.1502    0.0000 H   0  0  0  0  0  0
    4.1161   -2.1710    0.0000 H   0  0  0  0  0  0
    1.6515   -2.1437    0.0000 H   0  0  0  0  0  0
    6.2870   -0.9292    0.0000 H   0  0  0  0  0  0
    7.5111    1.2107    0.0000 H   0  0  0  0  0  0
    3.8033    3.3763    0.0000 H   0  0  0  0  0  0
    5.8548    4.6106    0.0001 H   0  0  0  0  0  0
    7.1635    3.8067   -0.8810 H   0  0  0  0  0  0
    7.1636    3.8066    0.8810 H   0  0  0  0  0  0
  1  2  1  0  0  0
  1 13  1  0  0  0
  1 14  1  0  0  0
  1 15  1  0  0  0
  2  7  1  0  0  0
  2  3  2  0  0  0
  3  4  1  0  0  0
  3 16  1  0  0  0
  4 11  1  0  0  0
  4  5  2  0  0  0
  5  6  1  0  0  0
  5  8  1  0  0  0
  6  7  2  0  0  0
  6 17  1  0  0  0
  7 18  1  0  0  0
  8  9  2  0  0  0
  8 19  1  0  0  0
  9 10  1  0  0  0
  9 20  1  0  0  0
 10 11  2  0  0  0
 10 12  1  0  0  0
 11 21  1  0  0  0
 12 22  1  0  0  0
 12 23  1  0  0  0
 12 24  1  0  0  0
M  END
>  <i_m_Spin_multiplicity> (1)
1

>  <s_j_Task> (1)
Single Point

>  <s_j_QM_Method> (1)
DFT(b3lyp-d3)

>  <s_j_QM_Basis> (1)
cc-pvtz(-f)

>  <i_j_Number_of_canonical_orbitals> (1)
374

>  <i_j_Geometry_convergence_category> (1)
0

>  <r_j_Gas_Phase_Energy> (1)
-464.688135456829

>  <r_j_Final_Energy> (1)
-464.688135456829

>  <r_j_HOMO> (1)
-0.211783396312388

>  <r_j_LUMO> (1)
-0.0366240517490387

>  <r_j_Polarizability> (1)
143.045583752795

>  <r_j_QM_Dipole_(debye)> (1)
0.207000026432042

>  <r_j_QM_Dipole_X_(debye)> (1)
-0.10298556200553

>  <r_j_QM_Dipole_Y_(debye)> (1)
0.179563316476773

>  <r_j_QM_Dipole_Z_(debye)> (1)
1.8361190215971e-05

>  <r_j_Lowest_Frequency_(cm-1)> (1)
123.003322267197

>  <r_j_Highest_Frequency_(cm-1)> (1)
3131.58621579231

>  <r_j_2nd_Lowest_Frequency_(cm-1)> (1)
142.928638023295

>  <i_j_Num_Negative_Frequencies> (1)
0

>  <r_j_Zero_Point_Energy_(kcal/mol)> (1)
126.45400399674

>  <r_j_Entropy_(cal/mol/K)_298.15K_1.00E+00atm> (1)
95.4087514992094

>  <r_j_Enthalpy_(kcal/mol)_298.15K_1.00E+00atm> (1)
6.7589339647631

>  <r_j_Free_Energy_(kcal/mol)_298.15K_1.00E+00atm> (1)
-21.6871852947262

>  <r_j_Internal_Energy_(kcal/mol)_298.15K_1.00E+00atm> (1)
6.16644837593582

>  <r_j_Heat_Capacity_(cal/mol/K)_298.15K_1.00E+00atm> (1)
40.3611136108598

>  <r_j_ln(Q)_298.15K_1.00E+00atm> (1)
36.6037346792726

>  <r_j_Total_Internal_Energy_(au)_298.15K_1.00E+00atm> (1)
-464.476791311899

>  <r_j_Total_Enthalpy_(au)_298.15K_1.00E+00atm> (1)
-464.475847126006

>  <r_j_Total_Free_Energy_(au)_298.15K_1.00E+00atm> (1)
-464.521178902847

>  <r_lp_tautomer_probability> (1)
1

>  <r_epik_Ionization_Penalty> (1)
  0.0000

>  <r_epik_Ionization_Penalty_Charging> (1)
  0.0000

>  <r_epik_Ionization_Penalty_Neutral> (1)
  0.0000

>  <r_epik_State_Penalty> (1)
  0.0000

>  <r_epik_Charging_Adjusted_Penalty> (1)
0

>  <i_epik_Tot_Q> (1)
0

>  <i_epik_Tot_abs_Q> (1)
0

>  <s_lp_Force_Field> (1)
S-OPLS

>  <r_lp_Energy> (1)
14.0696

>  <b_lp_Chiralities_Consistent> (1)
1

$$$$
