1140_Toluene
                    3D
 Schrodinger Suite 2021-3.
 15 15  0  0  1  0            999 V2000
   -0.0229   -0.0003    0.0000 C   0  0  0  0  0  0
    1.4882    0.0088    0.0000 C   0  0  0  0  0  0
    2.2093    1.2077    0.0000 C   0  0  0  0  0  0
    3.6057    1.2064    0.0000 C   0  0  0  0  0  0
    4.3050    0.0007    0.0000 C   0  0  0  0  0  0
    3.5975   -1.2035    0.0000 C   0  0  0  0  0  0
    2.2041   -1.1968    0.0000 C   0  0  0  0  0  0
   -0.4319    1.0139    0.0000 H   0  0  0  0  0  0
   -0.4160   -0.5201    0.8813 H   0  0  0  0  0  0
   -0.4160   -0.5201   -0.8813 H   0  0  0  0  0  0
    1.6721    2.1530    0.0000 H   0  0  0  0  0  0
    4.1457    2.1492    0.0000 H   0  0  0  0  0  0
    5.3912   -0.0029    0.0000 H   0  0  0  0  0  0
    4.1332   -2.1488    0.0000 H   0  0  0  0  0  0
    1.6605   -2.1390    0.0000 H   0  0  0  0  0  0
  1  2  1  0  0  0
  1  8  1  0  0  0
  1  9  1  0  0  0
  1 10  1  0  0  0
  2  7  1  0  0  0
  2  3  2  0  0  0
  3  4  1  0  0  0
  3 11  1  0  0  0
  4  5  2  0  0  0
  4 12  1  0  0  0
  5  6  1  0  0  0
  5 13  1  0  0  0
  6  7  2  0  0  0
  6 14  1  0  0  0
  7 15  1  0  0  0
M  END
>  <i_m_Spin_multiplicity> (1)
1

>  <s_j_Task> (1)
Single Point

>  <s_j_QM_Method> (1)
DFT(b3lyp-d3)

>  <s_j_QM_Basis> (1)
cc-pvtz(-f)

>  <i_j_Number_of_canonical_orbitals> (1)
229

>  <i_j_Geometry_convergence_category> (1)
0

>  <r_j_Gas_Phase_Energy> (1)
-271.662233143157

>  <r_j_Final_Energy> (1)
-271.662233143157

>  <r_j_HOMO> (1)
-0.245127860242828

>  <r_j_LUMO> (1)
-0.0130682282295584

>  <r_j_Polarizability> (1)
76.6317901709475

>  <r_j_QM_Dipole_(debye)> (1)
0.371833144998083

>  <r_j_QM_Dipole_X_(debye)> (1)
-0.36943990453983

>  <r_j_QM_Dipole_Y_(debye)> (1)
-0.0421194089310643

>  <r_j_QM_Dipole_Z_(debye)> (1)
6.63808793547278e-06

>  <r_j_Lowest_Frequency_(cm-1)> (1)
177.939670089744

>  <r_j_Highest_Frequency_(cm-1)> (1)
3145.61125640221

>  <r_j_2nd_Lowest_Frequency_(cm-1)> (1)
228.756448441476

>  <i_j_Num_Negative_Frequencies> (1)
0

>  <r_j_Zero_Point_Energy_(kcal/mol)> (1)
79.9225961984465

>  <r_j_Entropy_(cal/mol/K)_298.15K_1.00E+00atm> (1)
76.1692104430087

>  <r_j_Enthalpy_(kcal/mol)_298.15K_1.00E+00atm> (1)
4.27047561051725

>  <r_j_Free_Energy_(kcal/mol)_298.15K_1.00E+00atm> (1)
-18.4393744830658

>  <r_j_Internal_Energy_(kcal/mol)_298.15K_1.00E+00atm> (1)
3.67799002168997

>  <r_j_Heat_Capacity_(cal/mol/K)_298.15K_1.00E+00atm> (1)
22.8771877973461

>  <r_j_ln(Q)_298.15K_1.00E+00atm> (1)
31.1220641156242

>  <r_j_Total_Internal_Energy_(au)_298.15K_1.00E+00atm> (1)
-271.529007127906

>  <r_j_Total_Enthalpy_(au)_298.15K_1.00E+00atm> (1)
-271.528062942014

>  <r_j_Total_Free_Energy_(au)_298.15K_1.00E+00atm> (1)
-271.564253392006

>  <r_lp_tautomer_probability> (1)
1

>  <r_epik_Ionization_Penalty> (1)
  0.0000

>  <r_epik_Ionization_Penalty_Charging> (1)
  0.0000

>  <r_epik_Ionization_Penalty_Neutral> (1)
  0.0000

>  <r_epik_State_Penalty> (1)
  0.0000

>  <r_epik_Charging_Adjusted_Penalty> (1)
0

>  <i_epik_Tot_Q> (1)
0

>  <i_epik_Tot_abs_Q> (1)
0

>  <s_lp_Force_Field> (1)
S-OPLS

>  <r_lp_Energy> (1)
6.403552

>  <b_lp_Chiralities_Consistent> (1)
1

$$$$
