11416_1,2-dimethylcyclohexane
                    3D
 Schrodinger Suite 2021-3.
 24 24  0  0  1  0            999 V2000
   -0.0332   -0.0583   -0.0535 C   0  0  0  0  0  0
    1.4992    0.0041   -0.0061 C   0  0  0  0  0  0
    2.0443    0.7131   -1.2618 C   0  0  0  0  0  0
    3.5760    0.7914   -1.2788 C   0  0  0  0  0  0
    4.1028    1.4706   -0.0082 C   0  0  0  0  0  0
    3.5740    0.7663    1.2475 C   0  0  0  0  0  0
    2.0349    0.6831    1.2791 C   0  0  0  0  0  0
    1.5663   -0.0153    2.5624 C   0  0  0  0  0  0
   -0.4650    0.9467    0.0328 H   0  0  0  0  0  0
   -0.4494   -0.6713    0.7506 H   0  0  0  0  0  0
   -0.3754   -0.4846   -1.0029 H   0  0  0  0  0  0
    1.8856   -1.0285   -0.0120 H   0  0  0  0  0  0
    1.6801    0.1987   -2.1600 H   0  0  0  0  0  0
    1.6288    1.7315   -1.2987 H   0  0  0  0  0  0
    3.9890   -0.2255   -1.3422 H   0  0  0  0  0  0
    3.9201    1.3253   -2.1726 H   0  0  0  0  0  0
    5.1993    1.4839   -0.0041 H   0  0  0  0  0  0
    3.7762    2.5204    0.0018 H   0  0  0  0  0  0
    3.9821   -0.2548    1.2896 H   0  0  0  0  0  0
    3.9315    1.2787    2.1496 H   0  0  0  0  0  0
    1.6452    1.7144    1.2870 H   0  0  0  0  0  0
    1.8641   -1.0713    2.5600 H   0  0  0  0  0  0
    0.4806    0.0258    2.6853 H   0  0  0  0  0  0
    2.0153    0.4525    3.4455 H   0  0  0  0  0  0
  1  2  1  0  0  0
  1  9  1  0  0  0
  1 10  1  0  0  0
  1 11  1  0  0  0
  2  7  1  0  0  0
  2  3  1  0  0  0
  2 12  1  0  0  0
  3  4  1  0  0  0
  3 13  1  0  0  0
  3 14  1  0  0  0
  4  5  1  0  0  0
  4 15  1  0  0  0
  4 16  1  0  0  0
  5  6  1  0  0  0
  5 17  1  0  0  0
  5 18  1  0  0  0
  6  7  1  0  0  0
  6 19  1  0  0  0
  6 20  1  0  0  0
  7  8  1  0  0  0
  7 21  1  0  0  0
  8 22  1  0  0  0
  8 23  1  0  0  0
  8 24  1  0  0  0
M  END
>  <i_m_Spin_multiplicity> (1)
1

>  <s_j_Task> (1)
Single Point

>  <s_j_QM_Method> (1)
DFT(b3lyp-d3)

>  <s_j_QM_Basis> (1)
cc-pvtz(-f)

>  <i_j_Number_of_canonical_orbitals> (1)
325

>  <i_j_Geometry_convergence_category> (1)
0

>  <r_j_Gas_Phase_Energy> (1)
-314.634205914759

>  <r_j_Final_Energy> (1)
-314.634205914759

>  <r_j_HOMO> (1)
-0.291313433087474

>  <r_j_LUMO> (1)
0.031400780634746

>  <r_j_Polarizability> (1)
93.5515383720179

>  <r_j_QM_Dipole_(debye)> (1)
0.0874685472371573

>  <r_j_QM_Dipole_X_(debye)> (1)
0.0708346430062331

>  <r_j_QM_Dipole_Y_(debye)> (1)
0.0267836366999036

>  <r_j_QM_Dipole_Z_(debye)> (1)
-0.0437702742861626

>  <r_j_Lowest_Frequency_(cm-1)> (1)
137.268863117511

>  <r_j_Highest_Frequency_(cm-1)> (1)
3063.67725839636

>  <r_j_2nd_Lowest_Frequency_(cm-1)> (1)
212.488352105006

>  <i_j_Num_Negative_Frequencies> (1)
0

>  <r_j_Zero_Point_Energy_(kcal/mol)> (1)
141.522353119002

>  <r_j_Entropy_(cal/mol/K)_298.15K_1.00E+00atm> (1)
85.8251792405415

>  <r_j_Enthalpy_(kcal/mol)_298.15K_1.00E+00atm> (1)
5.68672483447725

>  <r_j_Free_Energy_(kcal/mol)_298.15K_1.00E+00atm> (1)
-19.9020523560902

>  <r_j_Internal_Energy_(kcal/mol)_298.15K_1.00E+00atm> (1)
5.09423924564997

>  <r_j_Heat_Capacity_(cal/mol/K)_298.15K_1.00E+00atm> (1)
33.3257068439685

>  <r_j_ln(Q)_298.15K_1.00E+00atm> (1)
33.5907787993341

>  <r_j_Total_Internal_Energy_(au)_298.15K_1.00E+00atm> (1)
-314.400557500872

>  <r_j_Total_Enthalpy_(au)_298.15K_1.00E+00atm> (1)
-314.39961331498

>  <r_j_Total_Free_Energy_(au)_298.15K_1.00E+00atm> (1)
-314.440391627362

>  <r_lp_tautomer_probability> (1)
1

>  <r_epik_Ionization_Penalty> (1)
  0.0000

>  <r_epik_Ionization_Penalty_Charging> (1)
  0.0000

>  <r_epik_Ionization_Penalty_Neutral> (1)
  0.0000

>  <r_epik_State_Penalty> (1)
  0.0000

>  <r_epik_Charging_Adjusted_Penalty> (1)
0

>  <i_epik_Tot_Q> (1)
0

>  <i_epik_Tot_abs_Q> (1)
0

>  <s_lp_Force_Field> (1)
S-OPLS

>  <r_lp_Energy> (1)
11.241158

>  <b_lp_Chiralities_Consistent> (1)
1

$$$$
