11430_Potassium Carbonate
                    3D
 Schrodinger Suite 2021-3.
  6  3  0  0  1  0            999 V2000
    0.1839    1.0525    0.0000 C   0  0  0  0  0  0
    0.8347    2.1778    0.0000 O   0  0  0  0  0  0
    0.8331   -0.0738    0.0000 O   0  5  0  0  0  0
   -1.1161    1.0536    0.0000 O   0  5  0  0  0  0
    0.8331   -1.3738    0.0000 K   0  3  0  0  0  0
   -1.1161   -0.2464    0.0000 K   0  3  0  0  0  0
  1  2  2  0  0  0
  1  3  1  0  0  0
  1  4  1  0  0  0
M  END
>  <i_m_Spin_multiplicity> (1)
1

>  <s_j_Task> (1)
Single Point

>  <s_j_QM_Method> (1)
DFT(b3lyp-d3)

>  <s_j_QM_Basis> (1)
lacv3p**

>  <i_j_Number_of_canonical_orbitals> (1)
104

>  <r_j_Gas_Phase_Energy> (1)
-318.382579794701

>  <r_j_Final_Energy> (1)
-318.382579794701

>  <r_j_HOMO> (1)
-0.121735453239696

>  <r_j_LUMO> (1)
-0.0668504937737442

>  <r_j_Polarizability> (1)
139.277449622874

>  <r_j_QM_Dipole_(debye)> (1)
2.87349801842655

>  <r_j_QM_Dipole_X_(debye)> (1)
-0.718002288522872

>  <r_j_QM_Dipole_Y_(debye)> (1)
-2.78234857190418

>  <r_j_QM_Dipole_Z_(debye)> (1)
0

>  <r_j_Lowest_Frequency_(cm-1)> (1)
-1168.52341028077

>  <r_j_Highest_Frequency_(cm-1)> (1)
2018.54756452635

>  <r_j_2nd_Lowest_Frequency_(cm-1)> (1)
-995.294190731553

>  <i_j_Num_Negative_Frequencies> (1)
4

>  <r_j_Zero_Point_Energy_(kcal/mol)> (1)
12.8764442689363

>  <r_j_Entropy_(cal/mol/K)_298.15K_1.00E+00atm> (1)
69.6852211160144

>  <r_j_Enthalpy_(kcal/mol)_298.15K_1.00E+00atm> (1)
2.7761546679785

>  <r_j_Free_Energy_(kcal/mol)_298.15K_1.00E+00atm> (1)
-18.0004940077612

>  <r_j_Internal_Energy_(kcal/mol)_298.15K_1.00E+00atm> (1)
2.18366907915123

>  <r_j_Heat_Capacity_(cal/mol/K)_298.15K_1.00E+00atm> (1)
10.231362360076

>  <r_j_ln(Q)_298.15K_1.00E+00atm> (1)
30.3813195581518

>  <r_j_Total_Internal_Energy_(au)_298.15K_1.00E+00atm> (1)
-318.358579976264

>  <r_j_Total_Enthalpy_(au)_298.15K_1.00E+00atm> (1)
-318.357635790371

>  <r_j_Total_Free_Energy_(au)_298.15K_1.00E+00atm> (1)
-318.390745487785

$$$$
