11447_2,3-dimethylhexane
                    3D
 Schrodinger Suite 2021-3.
 26 25  0  0  1  0            999 V2000
   -2.1468    1.4588    0.1025 C   0  0  0  0  0  0
   -0.6241    1.4829   -0.0664 C   0  0  0  0  0  0
   -0.0161    0.0729   -0.0774 C   0  0  0  0  0  0
    1.5268    0.0150   -0.0545 C   0  0  0  0  0  0
    2.1213    0.7717   -1.2545 C   0  0  0  0  0  0
    2.0478   -1.4483    0.0172 C   0  0  0  0  0  0
    1.5080   -2.2056    1.2429 C   0  0  0  0  0  0
    3.5847   -1.5202    0.0233 C   0  0  0  0  0  0
   -2.5685    2.4693    0.0966 H   0  0  0  0  0  0
   -2.4329    0.9824    1.0473 H   0  0  0  0  0  0
   -2.6229    0.8942   -0.7076 H   0  0  0  0  0  0
   -0.3769    2.0129   -0.9934 H   0  0  0  0  0  0
   -0.1723    2.0647    0.7492 H   0  0  0  0  0  0
   -0.4112   -0.4623    0.7932 H   0  0  0  0  0  0
   -0.3818   -0.4721   -0.9610 H   0  0  0  0  0  0
    1.8638    0.5219    0.8649 H   0  0  0  0  0  0
    1.8466    0.2792   -2.1960 H   0  0  0  0  0  0
    3.2116    0.8228   -1.2090 H   0  0  0  0  0  0
    1.7568    1.8010   -1.2998 H   0  0  0  0  0  0
    1.6900   -1.9667   -0.8865 H   0  0  0  0  0  0
    1.7641   -1.6753    2.1689 H   0  0  0  0  0  0
    1.9493   -3.2060    1.3033 H   0  0  0  0  0  0
    0.4229   -2.3307    1.2180 H   0  0  0  0  0  0
    3.9970   -0.9351    0.8551 H   0  0  0  0  0  0
    4.0268   -1.1438   -0.9024 H   0  0  0  0  0  0
    3.9224   -2.5544    0.1485 H   0  0  0  0  0  0
  1  2  1  0  0  0
  1  9  1  0  0  0
  1 10  1  0  0  0
  1 11  1  0  0  0
  2  3  1  0  0  0
  2 12  1  0  0  0
  2 13  1  0  0  0
  3  4  1  0  0  0
  3 14  1  0  0  0
  3 15  1  0  0  0
  4  5  1  0  0  0
  4  6  1  0  0  0
  4 16  1  0  0  0
  5 17  1  0  0  0
  5 18  1  0  0  0
  5 19  1  0  0  0
  6  7  1  0  0  0
  6  8  1  0  0  0
  6 20  1  0  0  0
  7 21  1  0  0  0
  7 22  1  0  0  0
  7 23  1  0  0  0
  8 24  1  0  0  0
  8 25  1  0  0  0
  8 26  1  0  0  0
M  END
>  <i_m_Spin_multiplicity> (1)
1

>  <s_j_Task> (1)
Single Point

>  <s_j_QM_Method> (1)
DFT(b3lyp-d3)

>  <s_j_QM_Basis> (1)
cc-pvtz(-f)

>  <i_j_Number_of_canonical_orbitals> (1)
343

>  <i_j_Geometry_convergence_category> (1)
0

>  <r_j_Gas_Phase_Energy> (1)
-315.838717341369

>  <r_j_Final_Energy> (1)
-315.838717341369

>  <r_j_HOMO> (1)
-0.302897210705788

>  <r_j_LUMO> (1)
0.0260408392545751

>  <r_j_Polarizability> (1)
98.8582135678847

>  <r_j_QM_Dipole_(debye)> (1)
0.0282273927022932

>  <r_j_QM_Dipole_X_(debye)> (1)
-0.00551571545362705

>  <r_j_QM_Dipole_Y_(debye)> (1)
0.0195062968761088

>  <r_j_QM_Dipole_Z_(debye)> (1)
-0.0196434967351846

>  <r_j_Lowest_Frequency_(cm-1)> (1)
82.1522238194903

>  <r_j_Highest_Frequency_(cm-1)> (1)
3073.72756617489

>  <r_j_2nd_Lowest_Frequency_(cm-1)> (1)
125.376423255295

>  <i_j_Num_Negative_Frequencies> (1)
0

>  <r_j_Zero_Point_Energy_(kcal/mol)> (1)
153.750769883718

>  <r_j_Entropy_(cal/mol/K)_298.15K_1.00E+00atm> (1)
95.8889963999708

>  <r_j_Enthalpy_(kcal/mol)_298.15K_1.00E+00atm> (1)
7.01975418692937

>  <r_j_Free_Energy_(kcal/mol)_298.15K_1.00E+00atm> (1)
-21.5695500897219

>  <r_j_Internal_Energy_(kcal/mol)_298.15K_1.00E+00atm> (1)
6.4272685981021

>  <r_j_Heat_Capacity_(cal/mol/K)_298.15K_1.00E+00atm> (1)
39.2307317294005

>  <r_j_ln(Q)_298.15K_1.00E+00atm> (1)
36.405189419738

>  <r_j_Total_Internal_Energy_(au)_298.15K_1.00E+00atm> (1)
-315.583457387313

>  <r_j_Total_Enthalpy_(au)_298.15K_1.00E+00atm> (1)
-315.582513201421

>  <r_j_Total_Free_Energy_(au)_298.15K_1.00E+00atm> (1)
-315.628073158112

>  <r_lp_tautomer_probability> (1)
1

>  <r_epik_Ionization_Penalty> (1)
  0.0000

>  <r_epik_Ionization_Penalty_Charging> (1)
  0.0000

>  <r_epik_Ionization_Penalty_Neutral> (1)
  0.0000

>  <r_epik_State_Penalty> (1)
  0.0000

>  <r_epik_Charging_Adjusted_Penalty> (1)
0

>  <i_epik_Tot_Q> (1)
0

>  <i_epik_Tot_abs_Q> (1)
0

>  <s_lp_Force_Field> (1)
S-OPLS

>  <r_lp_Energy> (1)
6.31141

>  <b_lp_Chiralities_Consistent> (1)
1

$$$$
