11443_2,4-toluene diisocyanate
                    3D
 Schrodinger Suite 2021-3.
 19 19  0  0  1  0            999 V2000
    0.0041    0.0385    0.0001 C   0  0  0  0  0  0
    1.5124    0.0776    0.0000 C   0  0  0  0  0  0
    2.2332    1.2859    0.0000 C   0  0  0  0  0  0
    3.6348    1.2943    0.0000 C   0  0  0  0  0  0
    4.3397    0.0888   -0.0001 C   0  0  0  0  0  0
    3.6405   -1.1240   -0.0002 C   0  0  0  0  0  0
    2.2514   -1.1118   -0.0001 C   0  0  0  0  0  0
    5.7351    0.0476    0.0000 N   0  0  0  0  0  0
    6.6953    0.7827    0.0001 C   0  0  0  0  0  0
    7.7103    1.3802    0.0003 O   0  0  0  0  0  0
    1.5197    2.4893    0.0000 N   0  0  0  0  0  0
    1.7003    3.6846   -0.0001 C   0  0  0  0  0  0
    1.7387    4.8620   -0.0002 O   0  0  0  0  0  0
   -0.4249    1.0414    0.0001 H   0  0  0  0  0  0
   -0.3698   -0.4928    0.8823 H   0  0  0  0  0  0
   -0.3699   -0.4929   -0.8820 H   0  0  0  0  0  0
    4.1697    2.2389    0.0001 H   0  0  0  0  0  0
    4.1951   -2.0557   -0.0003 H   0  0  0  0  0  0
    1.7147   -2.0565   -0.0001 H   0  0  0  0  0  0
  1  2  1  0  0  0
  1 14  1  0  0  0
  1 15  1  0  0  0
  1 16  1  0  0  0
  2  7  1  0  0  0
  2  3  2  0  0  0
  3  4  1  0  0  0
  3 11  1  0  0  0
  4  5  2  0  0  0
  4 17  1  0  0  0
  5  6  1  0  0  0
  5  8  1  0  0  0
  6  7  2  0  0  0
  6 18  1  0  0  0
  7 19  1  0  0  0
  8  9  2  0  0  0
  9 10  2  0  0  0
 11 12  2  0  0  0
 12 13  2  0  0  0
M  END
>  <i_m_Spin_multiplicity> (1)
1

>  <s_j_Task> (1)
Single Point

>  <s_j_QM_Method> (1)
DFT(b3lyp-d3)

>  <s_j_QM_Basis> (1)
cc-pvtz(-f)

>  <i_j_Number_of_canonical_orbitals> (1)
347

>  <i_j_Geometry_convergence_category> (1)
3

>  <r_j_Gas_Phase_Energy> (1)
-606.743161654259

>  <r_j_Final_Energy> (1)
-606.743161654259

>  <r_j_HOMO> (1)
-0.238674453900152

>  <r_j_LUMO> (1)
-0.0438637742349354

>  <r_j_Polarizability> (1)
126.905227738612

>  <r_j_QM_Dipole_(debye)> (1)
3.24395316269166

>  <r_j_QM_Dipole_X_(debye)> (1)
-2.03710162249336

>  <r_j_QM_Dipole_Y_(debye)> (1)
-2.5245690910376

>  <r_j_QM_Dipole_Z_(debye)> (1)
-7.71343773053333e-05

>  <r_j_Lowest_Frequency_(cm-1)> (1)
88.7650448474464

>  <r_j_Highest_Frequency_(cm-1)> (1)
3160.92099317301

>  <r_j_2nd_Lowest_Frequency_(cm-1)> (1)
93.475907722109

>  <i_j_Num_Negative_Frequencies> (1)
0

>  <r_j_Zero_Point_Energy_(kcal/mol)> (1)
84.1759016366256

>  <r_j_Entropy_(cal/mol/K)_298.15K_1.00E+00atm> (1)
103.836378406962

>  <r_j_Enthalpy_(kcal/mol)_298.15K_1.00E+00atm> (1)
7.52194702909789

>  <r_j_Free_Energy_(kcal/mol)_298.15K_1.00E+00atm> (1)
-23.436869192938

>  <r_j_Internal_Energy_(kcal/mol)_298.15K_1.00E+00atm> (1)
6.92946144027061

>  <r_j_Heat_Capacity_(cal/mol/K)_298.15K_1.00E+00atm> (1)
41.0864763710239

>  <r_j_ln(Q)_298.15K_1.00E+00atm> (1)
39.5568594998695

>  <r_j_Total_Internal_Energy_(au)_298.15K_1.00E+00atm> (1)
-606.597976015743

>  <r_j_Total_Enthalpy_(au)_298.15K_1.00E+00atm> (1)
-606.597031829851

>  <r_j_Total_Free_Energy_(au)_298.15K_1.00E+00atm> (1)
-606.64636784421

>  <r_lp_tautomer_probability> (1)
1

>  <r_epik_Ionization_Penalty> (1)
  0.0000

>  <r_epik_Ionization_Penalty_Charging> (1)
  0.0000

>  <r_epik_Ionization_Penalty_Neutral> (1)
  0.0000

>  <r_epik_State_Penalty> (1)
  0.0000

>  <r_epik_Charging_Adjusted_Penalty> (1)
0

>  <i_epik_Tot_Q> (1)
0

>  <i_epik_Tot_abs_Q> (1)
0

>  <s_lp_Force_Field> (1)
S-OPLS

>  <r_lp_Energy> (1)
7.30009

>  <b_lp_Chiralities_Consistent> (1)
1

>  <s_epik_Chemistry_Notes> (1)
This compound has an imine and may undergo hydrolysis.

$$$$
