1146_Trimethylamine
                    3D
 Schrodinger Suite 2021-3.
 14 13  0  0  1  0            999 V2000
   -0.0638   -0.0119    0.0000 C   0  0  0  0  0  0
    1.4428    0.0489    0.0000 N   0  3  1  0  0  0
    1.9735    0.7082    1.2479 C   0  0  0  0  0  0
    1.9736    0.7082   -1.2479 C   0  0  0  0  0  0
   -0.4477    1.0090   -0.0001 H   0  0  0  0  0  0
   -0.3963   -0.5391    0.8945 H   0  0  0  0  0  0
   -0.3963   -0.5393   -0.8945 H   0  0  0  0  0  0
    1.6199    1.7398    1.2671 H   0  0  0  0  0  0
    3.0633    0.6841    1.2243 H   0  0  0  0  0  0
    1.6029    0.1668    2.1187 H   0  0  0  0  0  0
    1.6203    1.7399   -1.2670 H   0  0  0  0  0  0
    1.6027    0.1670   -2.1187 H   0  0  0  0  0  0
    3.0633    0.6838   -1.2244 H   0  0  0  0  0  0
    1.7847   -0.9178    0.0000 H   0  0  0  0  0  0
  1  2  1  0  0  0
  1  5  1  0  0  0
  1  6  1  0  0  0
  1  7  1  0  0  0
  2  3  1  0  0  0
  2  4  1  0  0  0
  2 14  1  0  0  0
  3  8  1  0  0  0
  3  9  1  0  0  0
  3 10  1  0  0  0
  4 11  1  0  0  0
  4 12  1  0  0  0
  4 13  1  0  0  0
M  END
>  <i_m_Spin_multiplicity> (1)
1

>  <s_j_Task> (1)
Single Point

>  <s_j_QM_Method> (1)
DFT(b3lyp-d3)

>  <s_j_QM_Basis> (1)
cc-pvtz(-f)

>  <i_j_Number_of_canonical_orbitals> (1)
182

>  <i_j_Geometry_convergence_category> (1)
0

>  <r_j_Gas_Phase_Energy> (1)
-174.921278945364

>  <r_j_Final_Energy> (1)
-174.921278945364

>  <r_j_HOMO> (1)
-0.586459544455876

>  <r_j_LUMO> (1)
-0.176325554882135

>  <r_j_Polarizability> (1)
41.8883546990394

>  <r_j_QM_Dipole_(debye)> (1)
0.810329685309247

>  <r_j_QM_Dipole_X_(debye)> (1)
0.270492754362766

>  <r_j_QM_Dipole_Y_(debye)> (1)
-0.763850638734842

>  <r_j_QM_Dipole_Z_(debye)> (1)
-0.000265395932628945

>  <r_j_Lowest_Frequency_(cm-1)> (1)
275.935819828121

>  <r_j_Highest_Frequency_(cm-1)> (1)
3388.75243476566

>  <r_j_2nd_Lowest_Frequency_(cm-1)> (1)
323.809346046948

>  <i_j_Num_Negative_Frequencies> (1)
0

>  <r_j_Zero_Point_Energy_(kcal/mol)> (1)
85.2860213104878

>  <r_j_Entropy_(cal/mol/K)_298.15K_1.00E+00atm> (1)
70.2525307103844

>  <r_j_Enthalpy_(kcal/mol)_298.15K_1.00E+00atm> (1)
3.8851638408609

>  <r_j_Free_Energy_(kcal/mol)_298.15K_1.00E+00atm> (1)
-17.0606281904402

>  <r_j_Internal_Energy_(kcal/mol)_298.15K_1.00E+00atm> (1)
3.29267825203362

>  <r_j_Heat_Capacity_(cal/mol/K)_298.15K_1.00E+00atm> (1)
18.8831390344564

>  <r_j_ln(Q)_298.15K_1.00E+00atm> (1)
28.795009553243

>  <r_j_Total_Internal_Energy_(au)_298.15K_1.00E+00atm> (1)
-174.780119801483

>  <r_j_Total_Enthalpy_(au)_298.15K_1.00E+00atm> (1)
-174.779175615591

>  <r_j_Total_Free_Energy_(au)_298.15K_1.00E+00atm> (1)
-174.812554860101

>  <r_epik_Ionization_Penalty> (1)
  0.0019

>  <r_epik_Ionization_Penalty_Charging> (1)
  0.0019

>  <r_epik_Ionization_Penalty_Neutral> (1)
  0.0000

>  <r_epik_State_Penalty> (1)
  0.0013

>  <r_epik_Charging_Adjusted_Penalty> (1)
0.00314271769268146

>  <i_epik_Tot_Q> (1)
1

>  <i_epik_Tot_abs_Q> (1)
1

>  <s_lp_Force_Field> (1)
S-OPLS

>  <r_lp_Energy> (1)
13.212502

>  <b_lp_Chiralities_Consistent> (1)
1

$$$$
