114842_Nonatriacontane
                    3D
 Schrodinger Suite 2021-3.
119118  0  0  1  0            999 V2000
    5.7195   12.5731  -11.3087 C   0  0  0  0  0  0
    4.2008   12.4754  -11.1365 C   0  0  0  0  0  0
    3.7506   11.1621  -10.4844 C   0  0  0  0  0  0
    2.2282   11.0682  -10.3184 C   0  0  0  0  0  0
    1.7354    9.8035   -9.5988 C   0  0  0  0  0  0
    2.0227    8.4911  -10.3417 C   0  0  0  0  0  0
    1.3537    7.2769   -9.6860 C   0  0  0  0  0  0
    1.6396    5.9544  -10.4116 C   0  0  0  0  0  0
    0.8157    4.7641   -9.8958 C   0  0  0  0  0  0
    1.1332    4.3325   -8.4573 C   0  0  0  0  0  0
    0.2149    3.2037   -7.9694 C   0  0  0  0  0  0
    0.5582    2.6452   -6.5805 C   0  0  0  0  0  0
    0.5449    3.6850   -5.4501 C   0  0  0  0  0  0
    0.5906    3.0474   -4.0560 C   0  0  0  0  0  0
    0.7600    4.0682   -2.9210 C   0  0  0  0  0  0
    0.4949    3.4994   -1.5179 C   0  0  0  0  0  0
    1.3732    2.3010   -1.1342 C   0  0  0  0  0  0
    1.0963    1.7913    0.2885 C   0  0  0  0  0  0
    1.7555    0.4424    0.6141 C   0  0  0  0  0  0
    3.2884    0.4665    0.6938 C   0  0  0  0  0  0
    3.8818   -0.9338    0.8900 C   0  0  0  0  0  0
    5.4026   -0.9582    1.0871 C   0  0  0  0  0  0
    5.9685   -2.3835    1.0864 C   0  0  0  0  0  0
    7.4666   -2.4753    1.4010 C   0  0  0  0  0  0
    8.0179   -3.8927    1.2041 C   0  0  0  0  0  0
    9.4797   -4.0733    1.6308 C   0  0  0  0  0  0
   10.0342   -5.4511    1.2485 C   0  0  0  0  0  0
   11.4446   -5.7373    1.7775 C   0  0  0  0  0  0
   12.0232   -7.0479    1.2299 C   0  0  0  0  0  0
   13.3677   -7.4502    1.8475 C   0  0  0  0  0  0
   13.9910   -8.6719    1.1572 C   0  0  0  0  0  0
   15.2818   -9.1925    1.8093 C   0  0  0  0  0  0
   15.0636   -9.9071    3.1501 C   0  0  0  0  0  0
   16.3519  -10.4871    3.7458 C   0  0  0  0  0  0
   16.1176  -11.2955    5.0275 C   0  0  0  0  0  0
   17.4067  -11.8864    5.6141 C   0  0  0  0  0  0
   17.2048  -12.7111    6.8952 C   0  0  0  0  0  0
   16.4017  -14.0046    6.6970 C   0  0  0  0  0  0
   16.3011  -14.8436    7.9746 C   0  0  0  0  0  0
    6.0122   13.5195  -11.7757 H   0  0  0  0  0  0
    6.0982   11.7595  -11.9382 H   0  0  0  0  0  0
    6.2311   12.5061  -10.3415 H   0  0  0  0  0  0
    3.8439   13.3201  -10.5313 H   0  0  0  0  0  0
    3.7125   12.5773  -12.1154 H   0  0  0  0  0  0
    4.1150   10.3204  -11.0882 H   0  0  0  0  0  0
    4.2308   11.0605   -9.5000 H   0  0  0  0  0  0
    1.8793   11.9502   -9.7639 H   0  0  0  0  0  0
    1.7538   11.1268  -11.3088 H   0  0  0  0  0  0
    2.1822    9.7567   -8.5952 H   0  0  0  0  0  0
    0.6512    9.8883   -9.4429 H   0  0  0  0  0  0
    1.6732    8.5793  -11.3808 H   0  0  0  0  0  0
    3.1058    8.3204  -10.3995 H   0  0  0  0  0  0
    1.6795    7.2097   -8.6396 H   0  0  0  0  0  0
    0.2665    7.4405   -9.6541 H   0  0  0  0  0  0
    1.4309    6.0885  -11.4818 H   0  0  0  0  0  0
    2.7117    5.7213  -10.3391 H   0  0  0  0  0  0
   -0.2528    5.0155   -9.9667 H   0  0  0  0  0  0
    0.9672    3.9045  -10.5628 H   0  0  0  0  0  0
    2.1828    4.0090   -8.3968 H   0  0  0  0  0  0
    1.0392    5.1920   -7.7833 H   0  0  0  0  0  0
   -0.8216    3.5712   -7.9616 H   0  0  0  0  0  0
    0.2380    2.3820   -8.6985 H   0  0  0  0  0  0
   -0.1572    1.8471   -6.3386 H   0  0  0  0  0  0
    1.5465    2.1648   -6.6118 H   0  0  0  0  0  0
    1.3955    4.3699   -5.5652 H   0  0  0  0  0  0
   -0.3580    4.3077   -5.5321 H   0  0  0  0  0  0
   -0.3330    2.4718   -3.8961 H   0  0  0  0  0  0
    1.4095    2.3167   -4.0217 H   0  0  0  0  0  0
    1.7750    4.4883   -2.9644 H   0  0  0  0  0  0
    0.0766    4.9113   -3.0921 H   0  0  0  0  0  0
    0.6292    4.2972   -0.7746 H   0  0  0  0  0  0
   -0.5606    3.1980   -1.4507 H   0  0  0  0  0  0
    1.1998    1.4786   -1.8410 H   0  0  0  0  0  0
    2.4311    2.5768   -1.2411 H   0  0  0  0  0  0
    1.4145    2.5479    1.0199 H   0  0  0  0  0  0
    0.0100    1.6872    0.4156 H   0  0  0  0  0  0
    1.3624    0.0702    1.5699 H   0  0  0  0  0  0
    1.4471   -0.2926   -0.1438 H   0  0  0  0  0  0
    3.7082    0.9056   -0.2208 H   0  0  0  0  0  0
    3.5992    1.1237    1.5187 H   0  0  0  0  0  0
    3.4016   -1.4172    1.7530 H   0  0  0  0  0  0
    3.6212   -1.5520    0.0185 H   0  0  0  0  0  0
    5.8883   -0.3756    0.2912 H   0  0  0  0  0  0
    5.6578   -0.4553    2.0308 H   0  0  0  0  0  0
    5.4135   -2.9963    1.8114 H   0  0  0  0  0  0
    5.7775   -2.8382    0.1035 H   0  0  0  0  0  0
    8.0235   -1.7774    0.7595 H   0  0  0  0  0  0
    7.6444   -2.1459    2.4346 H   0  0  0  0  0  0
    7.3936   -4.6067    1.7605 H   0  0  0  0  0  0
    7.9139   -4.1681    0.1445 H   0  0  0  0  0  0
   10.1002   -3.2917    1.1694 H   0  0  0  0  0  0
    9.5639   -3.9260    2.7170 H   0  0  0  0  0  0
    9.3516   -6.2321    1.6136 H   0  0  0  0  0  0
   10.0326   -5.5417    0.1526 H   0  0  0  0  0  0
   12.1151   -4.9069    1.5142 H   0  0  0  0  0  0
   11.4213   -5.7717    2.8762 H   0  0  0  0  0  0
   11.3001   -7.8605    1.3910 H   0  0  0  0  0  0
   12.1349   -6.9588    0.1395 H   0  0  0  0  0  0
   14.0708   -6.6069    1.7875 H   0  0  0  0  0  0
   13.2236   -7.6497    2.9176 H   0  0  0  0  0  0
   13.2532   -9.4869    1.1252 H   0  0  0  0  0  0
   14.1951   -8.4109    0.1100 H   0  0  0  0  0  0
   15.7718   -9.8926    1.1191 H   0  0  0  0  0  0
   15.9865   -8.3594    1.9457 H   0  0  0  0  0  0
   14.6083   -9.2206    3.8762 H   0  0  0  0  0  0
   14.3365  -10.7194    3.0044 H   0  0  0  0  0  0
   16.8374  -11.1321    2.9991 H   0  0  0  0  0  0
   17.0618   -9.6723    3.9481 H   0  0  0  0  0  0
   15.6350  -10.6577    5.7823 H   0  0  0  0  0  0
   15.4034  -12.1002    4.8094 H   0  0  0  0  0  0
   17.8932  -12.5157    4.8547 H   0  0  0  0  0  0
   18.1081  -11.0669    5.8217 H   0  0  0  0  0  0
   18.1885  -12.9694    7.3109 H   0  0  0  0  0  0
   16.7089  -12.0900    7.6554 H   0  0  0  0  0  0
   15.3915  -13.7664    6.3419 H   0  0  0  0  0  0
   16.8716  -14.5998    5.9015 H   0  0  0  0  0  0
   15.7241  -15.7599    7.8105 H   0  0  0  0  0  0
   15.8114  -14.2810    8.7779 H   0  0  0  0  0  0
   17.2945  -15.1347    8.3354 H   0  0  0  0  0  0
  1  2  1  0  0  0
  1 40  1  0  0  0
  1 41  1  0  0  0
  1 42  1  0  0  0
  2  3  1  0  0  0
  2 43  1  0  0  0
  2 44  1  0  0  0
  3  4  1  0  0  0
  3 45  1  0  0  0
  3 46  1  0  0  0
  4  5  1  0  0  0
  4 47  1  0  0  0
  4 48  1  0  0  0
  5  6  1  0  0  0
  5 49  1  0  0  0
  5 50  1  0  0  0
  6  7  1  0  0  0
  6 51  1  0  0  0
  6 52  1  0  0  0
  7  8  1  0  0  0
  7 53  1  0  0  0
  7 54  1  0  0  0
  8  9  1  0  0  0
  8 55  1  0  0  0
  8 56  1  0  0  0
  9 10  1  0  0  0
  9 57  1  0  0  0
  9 58  1  0  0  0
 10 11  1  0  0  0
 10 59  1  0  0  0
 10 60  1  0  0  0
 11 12  1  0  0  0
 11 61  1  0  0  0
 11 62  1  0  0  0
 12 13  1  0  0  0
 12 63  1  0  0  0
 12 64  1  0  0  0
 13 14  1  0  0  0
 13 65  1  0  0  0
 13 66  1  0  0  0
 14 15  1  0  0  0
 14 67  1  0  0  0
 14 68  1  0  0  0
 15 16  1  0  0  0
 15 69  1  0  0  0
 15 70  1  0  0  0
 16 17  1  0  0  0
 16 71  1  0  0  0
 16 72  1  0  0  0
 17 18  1  0  0  0
 17 73  1  0  0  0
 17 74  1  0  0  0
 18 19  1  0  0  0
 18 75  1  0  0  0
 18 76  1  0  0  0
 19 20  1  0  0  0
 19 77  1  0  0  0
 19 78  1  0  0  0
 20 21  1  0  0  0
 20 79  1  0  0  0
 20 80  1  0  0  0
 21 22  1  0  0  0
 21 81  1  0  0  0
 21 82  1  0  0  0
 22 23  1  0  0  0
 22 83  1  0  0  0
 22 84  1  0  0  0
 23 24  1  0  0  0
 23 85  1  0  0  0
 23 86  1  0  0  0
 24 25  1  0  0  0
 24 87  1  0  0  0
 24 88  1  0  0  0
 25 26  1  0  0  0
 25 89  1  0  0  0
 25 90  1  0  0  0
 26 27  1  0  0  0
 26 91  1  0  0  0
 26 92  1  0  0  0
 27 28  1  0  0  0
 27 93  1  0  0  0
 27 94  1  0  0  0
 28 29  1  0  0  0
 28 95  1  0  0  0
 28 96  1  0  0  0
 29 30  1  0  0  0
 29 97  1  0  0  0
 29 98  1  0  0  0
 30 31  1  0  0  0
 30 99  1  0  0  0
 30100  1  0  0  0
 31 32  1  0  0  0
 31101  1  0  0  0
 31102  1  0  0  0
 32 33  1  0  0  0
 32103  1  0  0  0
 32104  1  0  0  0
 33 34  1  0  0  0
 33105  1  0  0  0
 33106  1  0  0  0
 34 35  1  0  0  0
 34107  1  0  0  0
 34108  1  0  0  0
 35 36  1  0  0  0
 35109  1  0  0  0
 35110  1  0  0  0
 36 37  1  0  0  0
 36111  1  0  0  0
 36112  1  0  0  0
 37 38  1  0  0  0
 37113  1  0  0  0
 37114  1  0  0  0
 38 39  1  0  0  0
 38115  1  0  0  0
 38116  1  0  0  0
 39117  1  0  0  0
 39118  1  0  0  0
 39119  1  0  0  0
M  END
>  <i_m_Spin_multiplicity> (1)
1

>  <s_j_Task> (1)
Single Point

>  <s_j_QM_Method> (1)
DFT(b3lyp-d3)

>  <s_j_QM_Basis> (1)
cc-pvtz(-f)

>  <i_j_Number_of_canonical_orbitals> (1)
1604

>  <i_j_Geometry_convergence_category> (1)
4

>  <r_j_Gas_Phase_Energy> (1)
-1535.04492390754

>  <r_j_Final_Energy> (1)
-1535.04492390754

>  <r_j_HOMO> (1)
-0.191606982406783

>  <r_j_LUMO> (1)
-0.0788179884557388

>  <r_j_Polarizability> (1)
486.146510190864

>  <r_j_QM_Dipole_(debye)> (1)
0.0927315759621369

>  <r_j_QM_Dipole_X_(debye)> (1)
-0.0608181141171886

>  <r_j_QM_Dipole_Y_(debye)> (1)
0.0364164286452983

>  <r_j_QM_Dipole_Z_(debye)> (1)
-0.0597841609489678

>  <r_j_Lowest_Frequency_(cm-1)> (1)
12.5136087383499

>  <r_j_Highest_Frequency_(cm-1)> (1)
3044.43925311493

>  <r_j_2nd_Lowest_Frequency_(cm-1)> (1)
17.5149207951158

>  <i_j_Num_Negative_Frequencies> (1)
0

>  <r_j_Zero_Point_Energy_(kcal/mol)> (1)
708.526699823362

>  <r_j_Entropy_(cal/mol/K)_298.15K_1.00E+00atm> (1)
262.679314541922

>  <r_j_Enthalpy_(kcal/mol)_298.15K_1.00E+00atm> (1)
30.4937369589598

>  <r_j_Free_Energy_(kcal/mol)_298.15K_1.00E+00atm> (1)
-47.8241006717143

>  <r_j_Internal_Energy_(kcal/mol)_298.15K_1.00E+00atm> (1)
29.9012513701325

>  <r_j_Heat_Capacity_(cal/mol/K)_298.15K_1.00E+00atm> (1)
184.935171801298

>  <r_j_ln(Q)_298.15K_1.00E+00atm> (1)
80.7177449942269

>  <r_j_Total_Internal_Energy_(au)_298.15K_1.00E+00atm> (1)
-1533.8681640553

>  <r_j_Total_Enthalpy_(au)_298.15K_1.00E+00atm> (1)
-1533.86721986941

>  <r_j_Total_Free_Energy_(au)_298.15K_1.00E+00atm> (1)
-1533.99202728886

>  <r_lp_tautomer_probability> (1)
1

>  <r_epik_Ionization_Penalty> (1)
  0.0000

>  <r_epik_Ionization_Penalty_Charging> (1)
  0.0000

>  <r_epik_Ionization_Penalty_Neutral> (1)
  0.0000

>  <r_epik_State_Penalty> (1)
  0.0000

>  <r_epik_Charging_Adjusted_Penalty> (1)
0

>  <i_epik_Tot_Q> (1)
0

>  <i_epik_Tot_abs_Q> (1)
0

>  <s_lp_Force_Field> (1)
S-OPLS

>  <r_lp_Energy> (1)
22.535081

>  <b_lp_Chiralities_Consistent> (1)
1

$$$$
