114893_1-Nitrobenzo[e]pyrene
                    3D
 Schrodinger Suite 2021-3.
 34 38  0  0  1  0            999 V2000
    1.0819   -5.0671    0.2522 C   0  0  0  0  0  0
    1.8640   -3.9243    0.4592 C   0  0  0  0  0  0
    1.2826   -2.6724    0.3899 C   0  0  0  0  0  0
   -0.0891   -2.5068    0.0955 C   0  0  0  0  0  0
   -0.9007   -3.6685   -0.0195 C   0  0  0  0  0  0
   -0.2778   -4.9338    0.0393 C   0  0  0  0  0  0
   -2.3587   -3.5420   -0.1013 C   0  0  0  0  0  0
   -3.2066   -4.6486   -0.2468 C   0  0  0  0  0  0
   -4.5953   -4.5170   -0.2199 C   0  0  0  0  0  0
   -5.1757   -3.2703   -0.0477 C   0  0  0  0  0  0
   -4.3703   -2.1258    0.0764 C   0  0  0  0  0  0
   -2.9475   -2.2532    0.0389 C   0  0  0  0  0  0
   -2.1285   -1.0731    0.0922 C   0  0  0  0  0  0
   -2.7573    0.2071    0.1897 C   0  0  0  0  0  0
   -4.1862    0.2900    0.2755 C   0  0  0  0  0  0
   -4.9577   -0.8257    0.2193 C   0  0  0  0  0  0
   -1.9718    1.3726    0.1861 C   0  0  0  0  0  0
   -0.6054    1.2861    0.0104 C   0  0  0  0  0  0
   -0.0049    0.0329   -0.1277 C   0  0  0  0  0  0
   -0.7070   -1.1799   -0.0019 C   0  0  0  0  0  0
    1.4113    0.0925   -0.5285 N   0  3  1  0  0  0
    1.7390   -0.5206   -1.5410 O   0  0  0  0  0  0
    2.1632    0.7964    0.1497 O   0  5  0  0  0  0
    1.5295   -6.0552    0.2974 H   0  0  0  0  0  0
    2.9210   -4.0142    0.6888 H   0  0  0  0  0  0
    1.9017   -1.8146    0.6100 H   0  0  0  0  0  0
   -0.8748   -5.8326   -0.0516 H   0  0  0  0  0  0
   -2.7903   -5.6391   -0.3810 H   0  0  0  0  0  0
   -5.2192   -5.3985   -0.3315 H   0  0  0  0  0  0
   -6.2564   -3.1623   -0.0212 H   0  0  0  0  0  0
   -4.6400    1.2726    0.3686 H   0  0  0  0  0  0
   -6.0406   -0.7511    0.2673 H   0  0  0  0  0  0
   -2.4513    2.3415    0.2799 H   0  0  0  0  0  0
    0.0163    2.1711   -0.0555 H   0  0  0  0  0  0
  1  6  1  0  0  0
  1  2  2  0  0  0
  1 24  1  0  0  0
  2  3  1  0  0  0
  2 25  1  0  0  0
  3  4  2  0  0  0
  3 26  1  0  0  0
  4 20  1  0  0  0
  4  5  1  0  0  0
  5  6  2  0  0  0
  5  7  1  0  0  0
  6 27  1  0  0  0
  7 12  1  0  0  0
  7  8  2  0  0  0
  8  9  1  0  0  0
  8 28  1  0  0  0
  9 10  2  0  0  0
  9 29  1  0  0  0
 10 11  1  0  0  0
 10 30  1  0  0  0
 11 16  1  0  0  0
 11 12  2  0  0  0
 12 13  1  0  0  0
 13 20  1  0  0  0
 13 14  2  0  0  0
 14 15  1  0  0  0
 14 17  1  0  0  0
 15 16  2  0  0  0
 15 31  1  0  0  0
 16 32  1  0  0  0
 17 18  2  0  0  0
 17 33  1  0  0  0
 18 19  1  0  0  0
 18 34  1  0  0  0
 19 20  2  0  0  0
 19 21  1  0  0  0
 21 22  2  0  0  0
 21 23  1  0  0  0
M  END
>  <i_m_Spin_multiplicity> (1)
1

>  <s_j_Task> (1)
Single Point

>  <s_j_QM_Method> (1)
DFT(b3lyp-d3)

>  <s_j_QM_Basis> (1)
cc-pvtz(-f)

>  <i_j_Number_of_canonical_orbitals> (1)
607

>  <i_j_Geometry_convergence_category> (1)
3

>  <r_j_Gas_Phase_Energy> (1)
-974.223929139917

>  <r_j_Final_Energy> (1)
-974.223929139917

>  <r_j_HOMO> (1)
-0.235238836020306

>  <r_j_LUMO> (1)
-0.104109511128007

>  <r_j_Polarizability> (1)
256.76839755845

>  <r_j_QM_Dipole_(debye)> (1)
4.60105893003774

>  <r_j_QM_Dipole_X_(debye)> (1)
-4.24454355079007

>  <r_j_QM_Dipole_Y_(debye)> (1)
-1.45685284748594

>  <r_j_QM_Dipole_Z_(debye)> (1)
1.0154669388506

>  <r_j_Lowest_Frequency_(cm-1)> (1)
60.6181737860168

>  <r_j_Highest_Frequency_(cm-1)> (1)
3195.67195187245

>  <r_j_2nd_Lowest_Frequency_(cm-1)> (1)
101.224434812845

>  <i_j_Num_Negative_Frequencies> (1)
0

>  <r_j_Zero_Point_Energy_(kcal/mol)> (1)
160.27812111266

>  <r_j_Entropy_(cal/mol/K)_298.15K_1.00E+00atm> (1)
120.022280520919

>  <r_j_Enthalpy_(kcal/mol)_298.15K_1.00E+00atm> (1)
9.98089390711597

>  <r_j_Free_Energy_(kcal/mol)_298.15K_1.00E+00atm> (1)
-25.8037490301961

>  <r_j_Internal_Energy_(kcal/mol)_298.15K_1.00E+00atm> (1)
9.3884083182887

>  <r_j_Heat_Capacity_(cal/mol/K)_298.15K_1.00E+00atm> (1)
64.1614492737763

>  <r_j_ln(Q)_298.15K_1.00E+00atm> (1)
43.5516905673104

>  <r_j_Total_Internal_Energy_(au)_298.15K_1.00E+00atm> (1)
-973.953548312945

>  <r_j_Total_Enthalpy_(au)_298.15K_1.00E+00atm> (1)
-973.952604127053

>  <r_j_Total_Free_Energy_(au)_298.15K_1.00E+00atm> (1)
-974.009630585853

>  <r_lp_tautomer_probability> (1)
1

>  <r_epik_Ionization_Penalty> (1)
  0.0000

>  <r_epik_Ionization_Penalty_Charging> (1)
  0.0000

>  <r_epik_Ionization_Penalty_Neutral> (1)
  0.0000

>  <r_epik_State_Penalty> (1)
  0.0000

>  <r_epik_Charging_Adjusted_Penalty> (1)
0

>  <i_epik_Tot_Q> (1)
0

>  <i_epik_Tot_abs_Q> (1)
2

>  <s_lp_Force_Field> (1)
S-OPLS

>  <r_lp_Energy> (1)
96.8923

>  <b_lp_Chiralities_Consistent> (1)
1

$$$$
