11507_3-methylhexane
                    3D
 Schrodinger Suite 2021-3.
 23 22  0  0  1  0            999 V2000
   -2.1460    1.4920    0.0496 C   0  0  0  0  0  0
   -0.6172    1.4857   -0.0499 C   0  0  0  0  0  0
   -0.0354    0.0655   -0.0801 C   0  0  0  0  0  0
    1.5034   -0.0134   -0.0430 C   0  0  0  0  0  0
    2.1421    0.7015   -1.2442 C   0  0  0  0  0  0
    2.0029   -1.4717    0.0249 C   0  0  0  0  0  0
    1.5913   -2.2435    1.2836 C   0  0  0  0  0  0
   -2.5448    2.5118    0.0627 H   0  0  0  0  0  0
   -2.4849    0.9888    0.9626 H   0  0  0  0  0  0
   -2.5975    0.9684   -0.8012 H   0  0  0  0  0  0
   -0.3141    2.0366   -0.9481 H   0  0  0  0  0  0
   -0.1907    2.0323    0.8027 H   0  0  0  0  0  0
   -0.4459   -0.4870    0.7744 H   0  0  0  0  0  0
   -0.3961   -0.4557   -0.9801 H   0  0  0  0  0  0
    1.8411    0.4956    0.8740 H   0  0  0  0  0  0
    1.8003    0.2543   -2.1862 H   0  0  0  0  0  0
    3.2342    0.6195   -1.2151 H   0  0  0  0  0  0
    1.8929    1.7661   -1.2715 H   0  0  0  0  0  0
    1.6521   -2.0085   -0.8684 H   0  0  0  0  0  0
    3.0990   -1.4642   -0.0399 H   0  0  0  0  0  0
    2.0628   -3.2313    1.3082 H   0  0  0  0  0  0
    0.5093   -2.3976    1.3384 H   0  0  0  0  0  0
    1.8962   -1.7070    2.1899 H   0  0  0  0  0  0
  1  2  1  0  0  0
  1  8  1  0  0  0
  1  9  1  0  0  0
  1 10  1  0  0  0
  2  3  1  0  0  0
  2 11  1  0  0  0
  2 12  1  0  0  0
  3  4  1  0  0  0
  3 13  1  0  0  0
  3 14  1  0  0  0
  4  5  1  0  0  0
  4  6  1  0  0  0
  4 15  1  0  0  0
  5 16  1  0  0  0
  5 17  1  0  0  0
  5 18  1  0  0  0
  6  7  1  0  0  0
  6 19  1  0  0  0
  6 20  1  0  0  0
  7 21  1  0  0  0
  7 22  1  0  0  0
  7 23  1  0  0  0
M  END
>  <i_m_Spin_multiplicity> (1)
1

>  <s_j_Task> (1)
Single Point

>  <s_j_QM_Method> (1)
DFT(b3lyp-d3)

>  <s_j_QM_Basis> (1)
cc-pvtz(-f)

>  <i_j_Number_of_canonical_orbitals> (1)
304

>  <i_j_Geometry_convergence_category> (1)
1

>  <r_j_Gas_Phase_Energy> (1)
-276.51103474181

>  <r_j_Final_Energy> (1)
-276.51103474181

>  <r_j_HOMO> (1)
-0.306356129509399

>  <r_j_LUMO> (1)
0.0263333102333473

>  <r_j_Polarizability> (1)
87.2416631825055

>  <r_j_QM_Dipole_(debye)> (1)
0.0858537412027744

>  <r_j_QM_Dipole_X_(debye)> (1)
0.0666238701725866

>  <r_j_QM_Dipole_Y_(debye)> (1)
0.0334090095597983

>  <r_j_QM_Dipole_Z_(debye)> (1)
0.0426141159942641

>  <r_j_Lowest_Frequency_(cm-1)> (1)
125.036674815218

>  <r_j_Highest_Frequency_(cm-1)> (1)
3056.71748589746

>  <r_j_2nd_Lowest_Frequency_(cm-1)> (1)
134.90509318662

>  <i_j_Num_Negative_Frequencies> (1)
0

>  <r_j_Zero_Point_Energy_(kcal/mol)> (1)
136.070352867788

>  <r_j_Entropy_(cal/mol/K)_298.15K_1.00E+00atm> (1)
90.2868899300462

>  <r_j_Enthalpy_(kcal/mol)_298.15K_1.00E+00atm> (1)
6.25257097752915

>  <r_j_Free_Energy_(kcal/mol)_298.15K_1.00E+00atm> (1)
-20.6664652551141

>  <r_j_Internal_Energy_(kcal/mol)_298.15K_1.00E+00atm> (1)
5.66008538870187

>  <r_j_Heat_Capacity_(cal/mol/K)_298.15K_1.00E+00atm> (1)
33.9296216815925

>  <r_j_ln(Q)_298.15K_1.00E+00atm> (1)
34.8809585327129

>  <r_j_Total_Internal_Energy_(au)_298.15K_1.00E+00atm> (1)
-276.285172910185

>  <r_j_Total_Enthalpy_(au)_298.15K_1.00E+00atm> (1)
-276.284228724292

>  <r_j_Total_Free_Energy_(au)_298.15K_1.00E+00atm> (1)
-276.32712693941

>  <r_lp_tautomer_probability> (1)
1

>  <r_epik_Ionization_Penalty> (1)
  0.0000

>  <r_epik_Ionization_Penalty_Charging> (1)
  0.0000

>  <r_epik_Ionization_Penalty_Neutral> (1)
  0.0000

>  <r_epik_State_Penalty> (1)
  0.0000

>  <r_epik_Charging_Adjusted_Penalty> (1)
0

>  <i_epik_Tot_Q> (1)
0

>  <i_epik_Tot_abs_Q> (1)
0

>  <s_lp_Force_Field> (1)
S-OPLS

>  <r_lp_Energy> (1)
3.70754

>  <b_lp_Chiralities_Consistent> (1)
1

$$$$
