11509_3-Hexanone
                    3D
 Schrodinger Suite 2021-3.
 19 18  0  0  1  0            999 V2000
   -2.2929    0.9391    0.4324 C   0  0  0  0  0  0
   -0.8010    1.2800    0.4582 C   0  0  0  0  0  0
    0.0398    0.2944   -0.3544 C   0  0  0  0  0  0
    1.5327    0.6008   -0.3378 C   0  0  0  0  0  0
    1.9909    1.5211    0.3145 O   0  0  0  0  0  0
    2.4246   -0.3049   -1.1807 C   0  0  0  0  0  0
    3.9087    0.0369   -1.0699 C   0  0  0  0  0  0
   -2.8743    1.6576    1.0190 H   0  0  0  0  0  0
   -2.4808   -0.0582    0.8472 H   0  0  0  0  0  0
   -2.6866    0.9493   -0.5908 H   0  0  0  0  0  0
   -0.6349    2.2914    0.0709 H   0  0  0  0  0  0
   -0.4304    1.2952    1.4889 H   0  0  0  0  0  0
   -0.0969   -0.7328    0.0161 H   0  0  0  0  0  0
   -0.2937    0.2634   -1.4021 H   0  0  0  0  0  0
    2.2305   -1.3451   -0.8831 H   0  0  0  0  0  0
    2.0784   -0.2377   -2.2221 H   0  0  0  0  0  0
    4.5101   -0.6282   -1.6963 H   0  0  0  0  0  0
    4.2509   -0.0541   -0.0356 H   0  0  0  0  0  0
    4.0912    1.0693   -1.3793 H   0  0  0  0  0  0
  1  2  1  0  0  0
  1  8  1  0  0  0
  1  9  1  0  0  0
  1 10  1  0  0  0
  2  3  1  0  0  0
  2 11  1  0  0  0
  2 12  1  0  0  0
  3  4  1  0  0  0
  3 13  1  0  0  0
  3 14  1  0  0  0
  4  5  2  0  0  0
  4  6  1  0  0  0
  6  7  1  0  0  0
  6 15  1  0  0  0
  6 16  1  0  0  0
  7 17  1  0  0  0
  7 18  1  0  0  0
  7 19  1  0  0  0
M  END
>  <i_m_Spin_multiplicity> (1)
1

>  <s_j_Task> (1)
Single Point

>  <s_j_QM_Method> (1)
DFT(b3lyp-d3)

>  <s_j_QM_Basis> (1)
cc-pvtz(-f)

>  <i_j_Number_of_canonical_orbitals> (1)
268

>  <i_j_Geometry_convergence_category> (1)
3

>  <r_j_Gas_Phase_Energy> (1)
-311.221989049564

>  <r_j_Final_Energy> (1)
-311.221989049564

>  <r_j_HOMO> (1)
-0.246759833844446

>  <r_j_LUMO> (1)
-0.0155920243237924

>  <r_j_Polarizability> (1)
75.3922504954518

>  <r_j_QM_Dipole_(debye)> (1)
2.57016077822871

>  <r_j_QM_Dipole_X_(debye)> (1)
-1.00923223392224

>  <r_j_QM_Dipole_Y_(debye)> (1)
-1.93014274548007

>  <r_j_QM_Dipole_Z_(debye)> (1)
-1.36445069754395

>  <r_j_Lowest_Frequency_(cm-1)> (1)
91.0872070674554

>  <r_j_Highest_Frequency_(cm-1)> (1)
3073.5699369794

>  <r_j_2nd_Lowest_Frequency_(cm-1)> (1)
128.37971234267

>  <i_j_Num_Negative_Frequencies> (1)
0

>  <r_j_Zero_Point_Energy_(kcal/mol)> (1)
106.175175916486

>  <r_j_Entropy_(cal/mol/K)_298.15K_1.00E+00atm> (1)
88.8597365603356

>  <r_j_Enthalpy_(kcal/mol)_298.15K_1.00E+00atm> (1)
5.94876282968031

>  <r_j_Free_Energy_(kcal/mol)_298.15K_1.00E+00atm> (1)
-20.5447676257837

>  <r_j_Internal_Energy_(kcal/mol)_298.15K_1.00E+00atm> (1)
5.35627724085304

>  <r_j_Heat_Capacity_(cal/mol/K)_298.15K_1.00E+00atm> (1)
30.6495566333484

>  <r_j_ln(Q)_298.15K_1.00E+00atm> (1)
34.6755566940432

>  <r_j_Total_Internal_Energy_(au)_298.15K_1.00E+00atm> (1)
-311.044252364319

>  <r_j_Total_Enthalpy_(au)_298.15K_1.00E+00atm> (1)
-311.043308178427

>  <r_j_Total_Free_Energy_(au)_298.15K_1.00E+00atm> (1)
-311.085528306922

>  <r_lp_tautomer_probability> (1)
1

>  <r_epik_Ionization_Penalty> (1)
  0.0000

>  <r_epik_Ionization_Penalty_Charging> (1)
  0.0000

>  <r_epik_Ionization_Penalty_Neutral> (1)
  0.0000

>  <r_epik_State_Penalty> (1)
  0.0000

>  <r_epik_Charging_Adjusted_Penalty> (1)
0

>  <i_epik_Tot_Q> (1)
0

>  <i_epik_Tot_abs_Q> (1)
0

>  <s_lp_Force_Field> (1)
S-OPLS

>  <r_lp_Energy> (1)
1.386171

>  <b_lp_Chiralities_Consistent> (1)
1

$$$$
