11519_3-methylheptane
                    3D
 Schrodinger Suite 2021-3.
 26 25  0  0  1  0            999 V2000
   -2.6845    2.9258    0.0339 C   0  0  0  0  0  0
   -2.1093    1.5064    0.0340 C   0  0  0  0  0  0
   -0.5792    1.4791   -0.0686 C   0  0  0  0  0  0
   -0.0067    0.0557   -0.0873 C   0  0  0  0  0  0
    1.5314   -0.0336   -0.0418 C   0  0  0  0  0  0
    2.1817    0.6766   -1.2393 C   0  0  0  0  0  0
    2.0189   -1.4958    0.0278 C   0  0  0  0  0  0
    1.5926   -2.2653    1.2829 C   0  0  0  0  0  0
   -3.7768    2.9186    0.1113 H   0  0  0  0  0  0
   -2.4187    3.4586   -0.8865 H   0  0  0  0  0  0
   -2.2940    3.5090    0.8760 H   0  0  0  0  0  0
   -2.4204    0.9830    0.9484 H   0  0  0  0  0  0
   -2.5371    0.9358   -0.8018 H   0  0  0  0  0  0
   -0.2761    2.0223   -0.9728 H   0  0  0  0  0  0
   -0.1494    2.0338    0.7784 H   0  0  0  0  0  0
   -0.4241   -0.4897    0.7683 H   0  0  0  0  0  0
   -0.3654   -0.4686   -0.9861 H   0  0  0  0  0  0
    1.8680    0.4725    0.8771 H   0  0  0  0  0  0
    1.8392    0.2343   -2.1833 H   0  0  0  0  0  0
    3.2728    0.5836   -1.2060 H   0  0  0  0  0  0
    1.9429    1.7435   -1.2655 H   0  0  0  0  0  0
    1.6696   -2.0286   -0.8684 H   0  0  0  0  0  0
    3.1155   -1.4969   -0.0298 H   0  0  0  0  0  0
    2.0549   -3.2575    1.3091 H   0  0  0  0  0  0
    0.5089   -2.4098    1.3307 H   0  0  0  0  0  0
    1.8966   -1.7328    2.1918 H   0  0  0  0  0  0
  1  2  1  0  0  0
  1  9  1  0  0  0
  1 10  1  0  0  0
  1 11  1  0  0  0
  2  3  1  0  0  0
  2 12  1  0  0  0
  2 13  1  0  0  0
  3  4  1  0  0  0
  3 14  1  0  0  0
  3 15  1  0  0  0
  4  5  1  0  0  0
  4 16  1  0  0  0
  4 17  1  0  0  0
  5  6  1  0  0  0
  5  7  1  0  0  0
  5 18  1  0  0  0
  6 19  1  0  0  0
  6 20  1  0  0  0
  6 21  1  0  0  0
  7  8  1  0  0  0
  7 22  1  0  0  0
  7 23  1  0  0  0
  8 24  1  0  0  0
  8 25  1  0  0  0
  8 26  1  0  0  0
M  END
>  <i_m_Spin_multiplicity> (1)
1

>  <s_j_Task> (1)
Single Point

>  <s_j_QM_Method> (1)
DFT(b3lyp-d3)

>  <s_j_QM_Basis> (1)
cc-pvtz(-f)

>  <i_j_Number_of_canonical_orbitals> (1)
343

>  <i_j_Geometry_convergence_category> (1)
0

>  <r_j_Gas_Phase_Energy> (1)
-315.840477792502

>  <r_j_Final_Energy> (1)
-315.840477792502

>  <r_j_HOMO> (1)
-0.300806643696972

>  <r_j_LUMO> (1)
0.0272711244679987

>  <r_j_Polarizability> (1)
99.3467683883192

>  <r_j_QM_Dipole_(debye)> (1)
0.0620239668117738

>  <r_j_QM_Dipole_X_(debye)> (1)
0.0182275331063961

>  <r_j_QM_Dipole_Y_(debye)> (1)
-0.0352201412588479

>  <r_j_QM_Dipole_Z_(debye)> (1)
0.0476893189889523

>  <r_j_Lowest_Frequency_(cm-1)> (1)
94.0037090341962

>  <r_j_Highest_Frequency_(cm-1)> (1)
3057.33170921445

>  <r_j_2nd_Lowest_Frequency_(cm-1)> (1)
124.011286908059

>  <i_j_Num_Negative_Frequencies> (1)
0

>  <r_j_Zero_Point_Energy_(kcal/mol)> (1)
153.927583097368

>  <r_j_Entropy_(cal/mol/K)_298.15K_1.00E+00atm> (1)
96.7211745512469

>  <r_j_Enthalpy_(kcal/mol)_298.15K_1.00E+00atm> (1)
7.03497546412125

>  <r_j_Free_Energy_(kcal/mol)_298.15K_1.00E+00atm> (1)
-21.802442728333

>  <r_j_Internal_Energy_(kcal/mol)_298.15K_1.00E+00atm> (1)
6.44248987529398

>  <r_j_Heat_Capacity_(cal/mol/K)_298.15K_1.00E+00atm> (1)
38.6885170896425

>  <r_j_ln(Q)_298.15K_1.00E+00atm> (1)
36.7982667249127

>  <r_j_Total_Internal_Energy_(au)_298.15K_1.00E+00atm> (1)
-315.584911812004

>  <r_j_Total_Enthalpy_(au)_298.15K_1.00E+00atm> (1)
-315.583967626111

>  <r_j_Total_Free_Energy_(au)_298.15K_1.00E+00atm> (1)
-315.629922977498

>  <r_lp_tautomer_probability> (1)
1

>  <r_epik_Ionization_Penalty> (1)
  0.0000

>  <r_epik_Ionization_Penalty_Charging> (1)
  0.0000

>  <r_epik_Ionization_Penalty_Neutral> (1)
  0.0000

>  <r_epik_State_Penalty> (1)
  0.0000

>  <r_epik_Charging_Adjusted_Penalty> (1)
0

>  <i_epik_Tot_Q> (1)
0

>  <i_epik_Tot_abs_Q> (1)
0

>  <s_lp_Force_Field> (1)
S-OPLS

>  <r_lp_Energy> (1)
4.19958

>  <b_lp_Chiralities_Consistent> (1)
1

$$$$
