11511_2,4-dimethylhexane; 2,2,3-trimethylpentane
                    3D
 Schrodinger Suite 2021-3.
 26 25  0  0  1  0            999 V2000
   -0.0784    2.3564    1.1650 C   0  0  0  0  0  0
   -0.5936    1.4922    0.0056 C   0  0  0  0  0  0
   -2.1274    1.4198    0.0290 C   0  0  0  0  0  0
    0.0007    0.0696    0.0282 C   0  0  0  0  0  0
    1.5385   -0.0443    0.0044 C   0  0  0  0  0  0
    2.1517    0.7111   -1.1842 C   0  0  0  0  0  0
    1.9937   -1.5184   -0.0185 C   0  0  0  0  0  0
    1.5717   -2.3470    1.1999 C   0  0  0  0  0  0
   -0.3065    1.8854    2.1293 H   0  0  0  0  0  0
   -0.5503    3.3450    1.1577 H   0  0  0  0  0  0
    1.0045    2.5065    1.1162 H   0  0  0  0  0  0
   -0.3006    1.9762   -0.9362 H   0  0  0  0  0  0
   -2.4811    0.9599    0.9603 H   0  0  0  0  0  0
   -2.5123    0.8213   -0.8042 H   0  0  0  0  0  0
   -2.5739    2.4179   -0.0389 H   0  0  0  0  0  0
   -0.3826   -0.4367    0.9242 H   0  0  0  0  0  0
   -0.3992   -0.4891   -0.8315 H   0  0  0  0  0  0
    1.9318    0.4010    0.9302 H   0  0  0  0  0  0
    1.7447    0.3382   -2.1324 H   0  0  0  0  0  0
    3.2388    0.5792   -1.2145 H   0  0  0  0  0  0
    1.9516    1.7855   -1.1368 H   0  0  0  0  0  0
    1.6154   -1.9928   -0.9356 H   0  0  0  0  0  0
    3.0888   -1.5397   -0.0976 H   0  0  0  0  0  0
    2.0160   -3.3471    1.1657 H   0  0  0  0  0  0
    0.4863   -2.4738    1.2559 H   0  0  0  0  0  0
    1.8985   -1.8696    2.1312 H   0  0  0  0  0  0
  1  2  1  0  0  0
  1  9  1  0  0  0
  1 10  1  0  0  0
  1 11  1  0  0  0
  2  3  1  0  0  0
  2  4  1  0  0  0
  2 12  1  0  0  0
  3 13  1  0  0  0
  3 14  1  0  0  0
  3 15  1  0  0  0
  4  5  1  0  0  0
  4 16  1  0  0  0
  4 17  1  0  0  0
  5  6  1  0  0  0
  5  7  1  0  0  0
  5 18  1  0  0  0
  6 19  1  0  0  0
  6 20  1  0  0  0
  6 21  1  0  0  0
  7  8  1  0  0  0
  7 22  1  0  0  0
  7 23  1  0  0  0
  8 24  1  0  0  0
  8 25  1  0  0  0
  8 26  1  0  0  0
M  END
>  <i_m_Spin_multiplicity> (1)
1

>  <s_j_Task> (1)
Single Point

>  <s_j_QM_Method> (1)
DFT(b3lyp-d3)

>  <s_j_QM_Basis> (1)
cc-pvtz(-f)

>  <i_j_Number_of_canonical_orbitals> (1)
343

>  <i_j_Geometry_convergence_category> (1)
3

>  <r_j_Gas_Phase_Energy> (1)
-315.841409076966

>  <r_j_Final_Energy> (1)
-315.841409076966

>  <r_j_HOMO> (1)
-0.302272792885453

>  <r_j_LUMO> (1)
0.025872191648742

>  <r_j_Polarizability> (1)
98.4270359652991

>  <r_j_QM_Dipole_(debye)> (1)
0.100117290802404

>  <r_j_QM_Dipole_X_(debye)> (1)
0.08741236302845

>  <r_j_QM_Dipole_Y_(debye)> (1)
0.0304009242088719

>  <r_j_QM_Dipole_Z_(debye)> (1)
-0.0381881462582578

>  <r_j_Lowest_Frequency_(cm-1)> (1)
90.466613111962

>  <r_j_Highest_Frequency_(cm-1)> (1)
3055.02737338013

>  <r_j_2nd_Lowest_Frequency_(cm-1)> (1)
134.373470557351

>  <i_j_Num_Negative_Frequencies> (1)
0

>  <r_j_Zero_Point_Energy_(kcal/mol)> (1)
153.833794788288

>  <r_j_Entropy_(cal/mol/K)_298.15K_1.00E+00atm> (1)
95.1384344430833

>  <r_j_Enthalpy_(kcal/mol)_298.15K_1.00E+00atm> (1)
6.9444418721758

>  <r_j_Free_Energy_(kcal/mol)_298.15K_1.00E+00atm> (1)
-21.4210823570295

>  <r_j_Internal_Energy_(kcal/mol)_298.15K_1.00E+00atm> (1)
6.35195628334852

>  <r_j_Heat_Capacity_(cal/mol/K)_298.15K_1.00E+00atm> (1)
39.0865835714716

>  <r_j_ln(Q)_298.15K_1.00E+00atm> (1)
36.1546048730551

>  <r_j_Total_Internal_Energy_(au)_298.15K_1.00E+00atm> (1)
-315.586136832116

>  <r_j_Total_Enthalpy_(au)_298.15K_1.00E+00atm> (1)
-315.585192646224

>  <r_j_Total_Free_Energy_(au)_298.15K_1.00E+00atm> (1)
-315.630395986707

>  <r_lp_tautomer_probability> (1)
1

>  <r_epik_Ionization_Penalty> (1)
  0.0000

>  <r_epik_Ionization_Penalty_Charging> (1)
  0.0000

>  <r_epik_Ionization_Penalty_Neutral> (1)
  0.0000

>  <r_epik_State_Penalty> (1)
  0.0000

>  <r_epik_Charging_Adjusted_Penalty> (1)
0

>  <i_epik_Tot_Q> (1)
0

>  <i_epik_Tot_abs_Q> (1)
0

>  <s_lp_Force_Field> (1)
S-OPLS

>  <r_lp_Energy> (1)
4.42454

>  <b_lp_Chiralities_Consistent> (1)
1

$$$$
