11542_2,2-dimethylpentane
                    3D
 Schrodinger Suite 2021-3.
 23 22  0  0  1  0            999 V2000
   -0.5396    1.6032    0.0005 C   0  0  0  0  0  0
   -0.1048    0.1334    0.0009 C   0  0  0  0  0  0
    1.4226   -0.0162   -0.0008 C   0  0  0  0  0  0
    1.9922   -1.4579   -0.0004 C   0  0  0  0  0  0
    1.5411   -2.2246    1.2570 C   0  0  0  0  0  0
    3.5304   -1.3627    0.0008 C   0  0  0  0  0  0
    1.5425   -2.2249   -1.2581 C   0  0  0  0  0  0
   -1.6303    1.6999    0.0022 H   0  0  0  0  0  0
   -0.1591    2.1269   -0.8841 H   0  0  0  0  0  0
   -0.1563    2.1281    0.8832 H   0  0  0  0  0  0
   -0.5299   -0.3671    0.8793 H   0  0  0  0  0  0
   -0.5321   -0.3683   -0.8757 H   0  0  0  0  0  0
    1.8233    0.5110   -0.8790 H   0  0  0  0  0  0
    1.8252    0.5123    0.8757 H   0  0  0  0  0  0
    2.0070   -3.2157    1.2937 H   0  0  0  0  0  0
    0.4566   -2.3710    1.2770 H   0  0  0  0  0  0
    1.8256   -1.6871    2.1690 H   0  0  0  0  0  0
    3.8928   -0.8281    0.8863 H   0  0  0  0  0  0
    3.8940   -0.8288   -0.8847 H   0  0  0  0  0  0
    3.9866   -2.3593    0.0015 H   0  0  0  0  0  0
    2.0091   -3.2158   -1.2944 H   0  0  0  0  0  0
    1.8274   -1.6873   -2.1699 H   0  0  0  0  0  0
    0.4582   -2.3719   -1.2790 H   0  0  0  0  0  0
  1  2  1  0  0  0
  1  8  1  0  0  0
  1  9  1  0  0  0
  1 10  1  0  0  0
  2  3  1  0  0  0
  2 11  1  0  0  0
  2 12  1  0  0  0
  3  4  1  0  0  0
  3 13  1  0  0  0
  3 14  1  0  0  0
  4  5  1  0  0  0
  4  6  1  0  0  0
  4  7  1  0  0  0
  5 15  1  0  0  0
  5 16  1  0  0  0
  5 17  1  0  0  0
  6 18  1  0  0  0
  6 19  1  0  0  0
  6 20  1  0  0  0
  7 21  1  0  0  0
  7 22  1  0  0  0
  7 23  1  0  0  0
M  END
>  <i_m_Spin_multiplicity> (1)
1

>  <s_j_Task> (1)
Single Point

>  <s_j_QM_Method> (1)
DFT(b3lyp-d3)

>  <s_j_QM_Basis> (1)
cc-pvtz(-f)

>  <i_j_Number_of_canonical_orbitals> (1)
304

>  <i_j_Geometry_convergence_category> (1)
0

>  <r_j_Gas_Phase_Energy> (1)
-276.513180454167

>  <r_j_Final_Energy> (1)
-276.513180454167

>  <r_j_HOMO> (1)
-0.311584398449814

>  <r_j_LUMO> (1)
0.0191700311947127

>  <r_j_Polarizability> (1)
86.9774362206406

>  <r_j_QM_Dipole_(debye)> (1)
0.0738913822637318

>  <r_j_QM_Dipole_X_(debye)> (1)
-0.0671017899051128

>  <r_j_QM_Dipole_Y_(debye)> (1)
-0.0309382426364309

>  <r_j_QM_Dipole_Z_(debye)> (1)
0.000333626953906364

>  <r_j_Lowest_Frequency_(cm-1)> (1)
125.344399409207

>  <r_j_Highest_Frequency_(cm-1)> (1)
3052.62014420788

>  <r_j_2nd_Lowest_Frequency_(cm-1)> (1)
148.170062412137

>  <i_j_Num_Negative_Frequencies> (1)
0

>  <r_j_Zero_Point_Energy_(kcal/mol)> (1)
135.740382115206

>  <r_j_Entropy_(cal/mol/K)_298.15K_1.00E+00atm> (1)
88.5880025898941

>  <r_j_Enthalpy_(kcal/mol)_298.15K_1.00E+00atm> (1)
6.17425845317703

>  <r_j_Free_Energy_(kcal/mol)_298.15K_1.00E+00atm> (1)
-20.2382545189999

>  <r_j_Internal_Energy_(kcal/mol)_298.15K_1.00E+00atm> (1)
5.58177286434975

>  <r_j_Heat_Capacity_(cal/mol/K)_298.15K_1.00E+00atm> (1)
34.6652361211879

>  <r_j_ln(Q)_298.15K_1.00E+00atm> (1)
34.1582224118871

>  <r_j_Total_Internal_Energy_(au)_298.15K_1.00E+00atm> (1)
-276.287969263363

>  <r_j_Total_Enthalpy_(au)_298.15K_1.00E+00atm> (1)
-276.287025077471

>  <r_j_Total_Free_Energy_(au)_298.15K_1.00E+00atm> (1)
-276.329116096388

>  <r_lp_tautomer_probability> (1)
1

>  <r_epik_Ionization_Penalty> (1)
  0.0000

>  <r_epik_Ionization_Penalty_Charging> (1)
  0.0000

>  <r_epik_Ionization_Penalty_Neutral> (1)
  0.0000

>  <r_epik_State_Penalty> (1)
  0.0000

>  <r_epik_Charging_Adjusted_Penalty> (1)
0

>  <i_epik_Tot_Q> (1)
0

>  <i_epik_Tot_abs_Q> (1)
0

>  <s_lp_Force_Field> (1)
S-OPLS

>  <r_lp_Energy> (1)
4.58463

>  <b_lp_Chiralities_Consistent> (1)
1

$$$$
