11551_2,2-dimethylhexane
                    3D
 Schrodinger Suite 2021-3.
 26 25  0  0  1  0            999 V2000
   -0.7634    1.4381   -0.0018 C   0  0  0  0  0  0
   -0.1317    0.0430    0.0008 C   0  0  0  0  0  0
    1.4024    0.0793   -0.0003 C   0  0  0  0  0  0
    2.0223   -1.3241    0.0010 C   0  0  0  0  0  0
    3.5699   -1.4144    0.0004 C   0  0  0  0  0  0
    4.1574   -0.7458   -1.2568 C   0  0  0  0  0  0
    3.9593   -2.9058   -0.0013 C   0  0  0  0  0  0
    4.1586   -0.7484    1.2584 C   0  0  0  0  0  0
   -1.8572    1.3856   -0.0009 H   0  0  0  0  0  0
   -0.4574    2.0075   -0.8872 H   0  0  0  0  0  0
   -0.4560    2.0115    0.8804 H   0  0  0  0  0  0
   -0.4796   -0.5171    0.8796 H   0  0  0  0  0  0
   -0.4808   -0.5208   -0.8752 H   0  0  0  0  0  0
    1.7424    0.6422   -0.8792 H   0  0  0  0  0  0
    1.7437    0.6447    0.8765 H   0  0  0  0  0  0
    1.6478   -1.8701    0.8791 H   0  0  0  0  0  0
    1.6471   -1.8719   -0.8757 H   0  0  0  0  0  0
    5.2446   -0.8792   -1.2937 H   0  0  0  0  0  0
    3.9580    0.3303   -1.2759 H   0  0  0  0  0  0
    3.7355   -1.1831   -2.1691 H   0  0  0  0  0  0
    3.5641   -3.4163   -0.8871 H   0  0  0  0  0  0
    3.5649   -3.4180    0.8840 H   0  0  0  0  0  0
    5.0484   -3.0289   -0.0019 H   0  0  0  0  0  0
    5.2458   -0.8814    1.2936 H   0  0  0  0  0  0
    3.7379   -1.1880    2.1702 H   0  0  0  0  0  0
    3.9586    0.3275    1.2801 H   0  0  0  0  0  0
  1  2  1  0  0  0
  1  9  1  0  0  0
  1 10  1  0  0  0
  1 11  1  0  0  0
  2  3  1  0  0  0
  2 12  1  0  0  0
  2 13  1  0  0  0
  3  4  1  0  0  0
  3 14  1  0  0  0
  3 15  1  0  0  0
  4  5  1  0  0  0
  4 16  1  0  0  0
  4 17  1  0  0  0
  5  6  1  0  0  0
  5  7  1  0  0  0
  5  8  1  0  0  0
  6 18  1  0  0  0
  6 19  1  0  0  0
  6 20  1  0  0  0
  7 21  1  0  0  0
  7 22  1  0  0  0
  7 23  1  0  0  0
  8 24  1  0  0  0
  8 25  1  0  0  0
  8 26  1  0  0  0
M  END
>  <i_m_Spin_multiplicity> (1)
1

>  <s_j_Task> (1)
Single Point

>  <s_j_QM_Method> (1)
DFT(b3lyp-d3)

>  <s_j_QM_Basis> (1)
cc-pvtz(-f)

>  <i_j_Number_of_canonical_orbitals> (1)
344

>  <i_j_Geometry_convergence_category> (1)
3

>  <r_j_Gas_Phase_Energy> (1)
-315.842663471015

>  <r_j_Final_Energy> (1)
-315.842663471015

>  <r_j_HOMO> (1)
-0.308408293687359

>  <r_j_LUMO> (1)
0.019875789420464

>  <r_j_Polarizability> (1)
99.253200369169

>  <r_j_QM_Dipole_(debye)> (1)
0.0382463477861823

>  <r_j_QM_Dipole_X_(debye)> (1)
-0.038216417365025

>  <r_j_QM_Dipole_Y_(debye)> (1)
0.0015085390115064

>  <r_j_QM_Dipole_Z_(debye)> (1)
-0.000113458426710541

>  <r_j_Lowest_Frequency_(cm-1)> (1)
102.007392511673

>  <r_j_Highest_Frequency_(cm-1)> (1)
3051.67131977155

>  <r_j_2nd_Lowest_Frequency_(cm-1)> (1)
136.723516617747

>  <i_j_Num_Negative_Frequencies> (1)
0

>  <r_j_Zero_Point_Energy_(kcal/mol)> (1)
153.567708946318

>  <r_j_Entropy_(cal/mol/K)_298.15K_1.00E+00atm> (1)
95.1537990370823

>  <r_j_Enthalpy_(kcal/mol)_298.15K_1.00E+00atm> (1)
6.96462393673139

>  <r_j_Free_Energy_(kcal/mol)_298.15K_1.00E+00atm> (1)
-21.4054812461747

>  <r_j_Internal_Energy_(kcal/mol)_298.15K_1.00E+00atm> (1)
6.37213834790412

>  <r_j_Heat_Capacity_(cal/mol/K)_298.15K_1.00E+00atm> (1)
39.4364298474405

>  <r_j_ln(Q)_298.15K_1.00E+00atm> (1)
36.1282732438155

>  <r_j_Total_Internal_Energy_(au)_298.15K_1.00E+00atm> (1)
-315.58778309878

>  <r_j_Total_Enthalpy_(au)_298.15K_1.00E+00atm> (1)
-315.586838912888

>  <r_j_Total_Free_Energy_(au)_298.15K_1.00E+00atm> (1)
-315.632049553586

>  <r_lp_tautomer_probability> (1)
1

>  <r_epik_Ionization_Penalty> (1)
  0.0000

>  <r_epik_Ionization_Penalty_Charging> (1)
  0.0000

>  <r_epik_Ionization_Penalty_Neutral> (1)
  0.0000

>  <r_epik_State_Penalty> (1)
  0.0000

>  <r_epik_Charging_Adjusted_Penalty> (1)
0

>  <i_epik_Tot_Q> (1)
0

>  <i_epik_Tot_abs_Q> (1)
0

>  <s_lp_Force_Field> (1)
S-OPLS

>  <r_lp_Energy> (1)
5.054943

>  <b_lp_Chiralities_Consistent> (1)
1

$$$$
