11587_1,4-pentadiene
                    3D
 Schrodinger Suite 2021-3.
 13 12  0  0  1  0            999 V2000
   -0.7511    1.2601   -0.3010 C   0  0  0  0  0  0
   -0.1123    0.1755    0.1365 C   0  0  0  0  0  0
    1.3874   -0.0001    0.1591 C   0  0  0  0  0  0
    1.9086   -0.1756    1.5655 C   0  0  0  0  0  0
    2.5343   -1.2600    2.0220 C   0  0  0  0  0  0
   -0.2124    2.1185   -0.6964 H   0  0  0  0  0  0
   -1.8346    1.3317   -0.2837 H   0  0  0  0  0  0
   -0.6854   -0.6624    0.5337 H   0  0  0  0  0  0
    1.6681   -0.8757   -0.4419 H   0  0  0  0  0  0
    1.8606    0.8754   -0.3059 H   0  0  0  0  0  0
    1.7252    0.6624    2.2382 H   0  0  0  0  0  0
    2.7276   -2.1184    1.3825 H   0  0  0  0  0  0
    2.8792   -1.3313    3.0494 H   0  0  0  0  0  0
  1  2  2  0  0  0
  1  6  1  0  0  0
  1  7  1  0  0  0
  2  3  1  0  0  0
  2  8  1  0  0  0
  3  4  1  0  0  0
  3  9  1  0  0  0
  3 10  1  0  0  0
  4  5  2  0  0  0
  4 11  1  0  0  0
  5 12  1  0  0  0
  5 13  1  0  0  0
M  END
>  <i_m_Spin_multiplicity> (1)
1

>  <s_j_Task> (1)
Single Point

>  <s_j_QM_Method> (1)
DFT(b3lyp-d3)

>  <s_j_QM_Basis> (1)
cc-pvtz(-f)

>  <i_j_Number_of_canonical_orbitals> (1)
185

>  <i_j_Geometry_convergence_category> (1)
0

>  <r_j_Gas_Phase_Energy> (1)
-195.375858921753

>  <r_j_Final_Energy> (1)
-195.375858921753

>  <r_j_HOMO> (1)
-0.262933403975873

>  <r_j_LUMO> (1)
-0.0175595214251841

>  <r_j_Polarizability> (1)
61.0043993303772

>  <r_j_QM_Dipole_(debye)> (1)
0.115627978353259

>  <r_j_QM_Dipole_X_(debye)> (1)
0.0667349232206113

>  <r_j_QM_Dipole_Y_(debye)> (1)
1.01631117873916e-05

>  <r_j_QM_Dipole_Z_(debye)> (1)
-0.0944260520063819

>  <r_j_Lowest_Frequency_(cm-1)> (1)
130.134283459809

>  <r_j_Highest_Frequency_(cm-1)> (1)
3169.34609569423

>  <r_j_2nd_Lowest_Frequency_(cm-1)> (1)
148.824577456548

>  <i_j_Num_Negative_Frequencies> (1)
0

>  <r_j_Zero_Point_Energy_(kcal/mol)> (1)
70.935435346174

>  <r_j_Entropy_(cal/mol/K)_298.15K_1.00E+00atm> (1)
74.3347997661672

>  <r_j_Enthalpy_(kcal/mol)_298.15K_1.00E+00atm> (1)
4.19363424266655

>  <r_j_Free_Energy_(kcal/mol)_298.15K_1.00E+00atm> (1)
-17.9692863076162

>  <r_j_Internal_Energy_(kcal/mol)_298.15K_1.00E+00atm> (1)
3.60114865383928

>  <r_j_Heat_Capacity_(cal/mol/K)_298.15K_1.00E+00atm> (1)
20.2184971552124

>  <r_j_ln(Q)_298.15K_1.00E+00atm> (1)
30.3286470531433

>  <r_j_Total_Internal_Energy_(au)_298.15K_1.00E+00atm> (1)
-195.257077313565

>  <r_j_Total_Enthalpy_(au)_298.15K_1.00E+00atm> (1)
-195.256133127672

>  <r_j_Total_Free_Energy_(au)_298.15K_1.00E+00atm> (1)
-195.291451989952

>  <r_lp_tautomer_probability> (1)
1

>  <r_epik_Ionization_Penalty> (1)
  0.0000

>  <r_epik_Ionization_Penalty_Charging> (1)
  0.0000

>  <r_epik_Ionization_Penalty_Neutral> (1)
  0.0000

>  <r_epik_State_Penalty> (1)
  0.0000

>  <r_epik_Charging_Adjusted_Penalty> (1)
0

>  <i_epik_Tot_Q> (1)
0

>  <i_epik_Tot_abs_Q> (1)
0

>  <s_lp_Force_Field> (1)
S-OPLS

>  <r_lp_Energy> (1)
-1.237746

>  <b_lp_Chiralities_Consistent> (1)
1

$$$$
