11582_2-methylhexane
                    3D
 Schrodinger Suite 2021-3.
 23 22  0  0  1  0            999 V2000
   -2.1083    1.5711   -0.0755 C   0  0  0  0  0  0
   -0.5795    1.4850   -0.0434 C   0  0  0  0  0  0
   -0.0615    0.0441    0.0447 C   0  0  0  0  0  0
    1.4690   -0.0412    0.0876 C   0  0  0  0  0  0
    2.0488   -1.4677    0.0554 C   0  0  0  0  0  0
    1.6218   -2.2996    1.2737 C   0  0  0  0  0  0
    3.5798   -1.4208   -0.0505 C   0  0  0  0  0  0
   -2.4525    2.6084   -0.1412 H   0  0  0  0  0  0
   -2.5469    1.1304    0.8272 H   0  0  0  0  0  0
   -2.5152    1.0292   -0.9371 H   0  0  0  0  0  0
   -0.1647    1.9645   -0.9405 H   0  0  0  0  0  0
   -0.1963    2.0590    0.8113 H   0  0  0  0  0  0
   -0.4914   -0.4330    0.9349 H   0  0  0  0  0  0
   -0.4343   -0.5282   -0.8174 H   0  0  0  0  0  0
    1.8755    0.5203   -0.7655 H   0  0  0  0  0  0
    1.8369    0.4717    0.9890 H   0  0  0  0  0  0
    1.6614   -1.9643   -0.8474 H   0  0  0  0  0  0
    1.9509   -1.8183    2.2034 H   0  0  0  0  0  0
    2.0680   -3.2995    1.2418 H   0  0  0  0  0  0
    0.5362   -2.4239    1.3281 H   0  0  0  0  0  0
    4.0144   -0.9318    0.8304 H   0  0  0  0  0  0
    3.9032   -0.8606   -0.9347 H   0  0  0  0  0  0
    4.0064   -2.4276   -0.1149 H   0  0  0  0  0  0
  1  2  1  0  0  0
  1  8  1  0  0  0
  1  9  1  0  0  0
  1 10  1  0  0  0
  2  3  1  0  0  0
  2 11  1  0  0  0
  2 12  1  0  0  0
  3  4  1  0  0  0
  3 13  1  0  0  0
  3 14  1  0  0  0
  4  5  1  0  0  0
  4 15  1  0  0  0
  4 16  1  0  0  0
  5  6  1  0  0  0
  5  7  1  0  0  0
  5 17  1  0  0  0
  6 18  1  0  0  0
  6 19  1  0  0  0
  6 20  1  0  0  0
  7 21  1  0  0  0
  7 22  1  0  0  0
  7 23  1  0  0  0
M  END
>  <i_m_Spin_multiplicity> (1)
1

>  <s_j_Task> (1)
Single Point

>  <s_j_QM_Method> (1)
DFT(b3lyp-d3)

>  <s_j_QM_Basis> (1)
cc-pvtz(-f)

>  <i_j_Number_of_canonical_orbitals> (1)
304

>  <i_j_Geometry_convergence_category> (1)
3

>  <r_j_Gas_Phase_Energy> (1)
-276.512378079373

>  <r_j_Final_Energy> (1)
-276.512378079373

>  <r_j_HOMO> (1)
-0.309456264529039

>  <r_j_LUMO> (1)
0.0239782979616002

>  <r_j_Polarizability> (1)
87.7872421789446

>  <r_j_QM_Dipole_(debye)> (1)
0.0859251037504017

>  <r_j_QM_Dipole_X_(debye)> (1)
-0.027083518844829

>  <r_j_QM_Dipole_Y_(debye)> (1)
0.000118196456296767

>  <r_j_QM_Dipole_Z_(debye)> (1)
-0.0815450335158237

>  <r_j_Lowest_Frequency_(cm-1)> (1)
103.569672836757

>  <r_j_Highest_Frequency_(cm-1)> (1)
3054.33766031867

>  <r_j_2nd_Lowest_Frequency_(cm-1)> (1)
138.827473016049

>  <i_j_Num_Negative_Frequencies> (1)
0

>  <r_j_Zero_Point_Energy_(kcal/mol)> (1)
136.016943292228

>  <r_j_Entropy_(cal/mol/K)_298.15K_1.00E+00atm> (1)
90.4995162978481

>  <r_j_Enthalpy_(kcal/mol)_298.15K_1.00E+00atm> (1)
6.26234061643429

>  <r_j_Free_Energy_(kcal/mol)_298.15K_1.00E+00atm> (1)
-20.7200901677691

>  <r_j_Internal_Energy_(kcal/mol)_298.15K_1.00E+00atm> (1)
5.66985502760702

>  <r_j_Heat_Capacity_(cal/mol/K)_298.15K_1.00E+00atm> (1)
33.8795918476048

>  <r_j_ln(Q)_298.15K_1.00E+00atm> (1)
34.9714669158132

>  <r_j_Total_Internal_Energy_(au)_298.15K_1.00E+00atm> (1)
-276.286585792413

>  <r_j_Total_Enthalpy_(au)_298.15K_1.00E+00atm> (1)
-276.285641606521

>  <r_j_Total_Free_Energy_(au)_298.15K_1.00E+00atm> (1)
-276.328640847288

>  <r_lp_tautomer_probability> (1)
1

>  <r_epik_Ionization_Penalty> (1)
  0.0000

>  <r_epik_Ionization_Penalty_Charging> (1)
  0.0000

>  <r_epik_Ionization_Penalty_Neutral> (1)
  0.0000

>  <r_epik_State_Penalty> (1)
  0.0000

>  <r_epik_Charging_Adjusted_Penalty> (1)
0

>  <i_epik_Tot_Q> (1)
0

>  <i_epik_Tot_abs_Q> (1)
0

>  <s_lp_Force_Field> (1)
S-OPLS

>  <r_lp_Energy> (1)
2.83705

>  <b_lp_Chiralities_Consistent> (1)
1

$$$$
