11599_1,4-Hexadiene
                    3D
 Schrodinger Suite 2021-3.
 16 15  0  0  1  0            999 V2000
   -2.2928    1.2857   -0.1658 C   0  0  0  0  0  0
   -0.8022    1.1189   -0.2369 C   0  0  0  0  0  0
   -0.1207    0.0715    0.2325 C   0  0  0  0  0  0
    1.3795   -0.0882    0.1724 C   0  0  0  0  0  0
    1.9916   -0.1499    1.5514 C   0  0  0  0  0  0
    2.6568   -1.1910    2.0509 C   0  0  0  0  0  0
   -2.5646    2.1951    0.3856 H   0  0  0  0  0  0
   -2.7712    0.4345    0.3287 H   0  0  0  0  0  0
   -2.7298    1.3856   -1.1678 H   0  0  0  0  0  0
   -0.2507    1.9297   -0.7165 H   0  0  0  0  0  0
   -0.6609   -0.7404    0.7214 H   0  0  0  0  0  0
    1.6381   -1.0033   -0.3778 H   0  0  0  0  0  0
    1.8115    0.7537   -0.3858 H   0  0  0  0  0  0
    1.8401    0.7366    2.1676 H   0  0  0  0  0  0
    2.8194   -2.0956    1.4690 H   0  0  0  0  0  0
    3.0652   -1.1800    3.0572 H   0  0  0  0  0  0
  1  2  1  0  0  0
  1  7  1  0  0  0
  1  8  1  0  0  0
  1  9  1  0  0  0
  2  3  2  0  0  0
  2 10  1  0  0  0
  3  4  1  0  0  0
  3 11  1  0  0  0
  4  5  1  0  0  0
  4 12  1  0  0  0
  4 13  1  0  0  0
  5  6  2  0  0  0
  5 14  1  0  0  0
  6 15  1  0  0  0
  6 16  1  0  0  0
M  END
>  <i_m_Spin_multiplicity> (1)
1

>  <s_j_Task> (1)
Single Point

>  <s_j_QM_Method> (1)
DFT(b3lyp-d3)

>  <s_j_QM_Basis> (1)
cc-pvtz(-f)

>  <i_j_Number_of_canonical_orbitals> (1)
226

>  <i_j_Geometry_convergence_category> (1)
0

>  <r_j_Gas_Phase_Energy> (1)
-234.709767063368

>  <r_j_Final_Energy> (1)
-234.709767063368

>  <r_j_HOMO> (1)
-0.248112059007906

>  <r_j_LUMO> (1)
-0.0121775393664908

>  <r_j_Polarizability> (1)
75.1698514804878

>  <r_j_QM_Dipole_(debye)> (1)
0.465043906949372

>  <r_j_QM_Dipole_X_(debye)> (1)
-0.31611526079425

>  <r_j_QM_Dipole_Y_(debye)> (1)
0.255781536046035

>  <r_j_QM_Dipole_Z_(debye)> (1)
-0.22563861172603

>  <r_j_Lowest_Frequency_(cm-1)> (1)
111.187272470033

>  <r_j_Highest_Frequency_(cm-1)> (1)
3168.37437476851

>  <r_j_2nd_Lowest_Frequency_(cm-1)> (1)
145.287361338995

>  <i_j_Num_Negative_Frequencies> (1)
0

>  <r_j_Zero_Point_Energy_(kcal/mol)> (1)
88.558137608641

>  <r_j_Entropy_(cal/mol/K)_298.15K_1.00E+00atm> (1)
81.242560994247

>  <r_j_Enthalpy_(kcal/mol)_298.15K_1.00E+00atm> (1)
5.0282492375597

>  <r_j_Free_Energy_(kcal/mol)_298.15K_1.00E+00atm> (1)
-19.1942203228751

>  <r_j_Internal_Energy_(kcal/mol)_298.15K_1.00E+00atm> (1)
4.43576364873243

>  <r_j_Heat_Capacity_(cal/mol/K)_298.15K_1.00E+00atm> (1)
25.4568154446557

>  <r_j_ln(Q)_298.15K_1.00E+00atm> (1)
32.3960965208737

>  <r_j_Total_Internal_Energy_(au)_298.15K_1.00E+00atm> (1)
-234.561571847673

>  <r_j_Total_Enthalpy_(au)_298.15K_1.00E+00atm> (1)
-234.560627661781

>  <r_j_Total_Free_Energy_(au)_298.15K_1.00E+00atm> (1)
-234.599228624346

>  <r_lp_tautomer_probability> (1)
1

>  <r_epik_Ionization_Penalty> (1)
  0.0000

>  <r_epik_Ionization_Penalty_Charging> (1)
  0.0000

>  <r_epik_Ionization_Penalty_Neutral> (1)
  0.0000

>  <r_epik_State_Penalty> (1)
  0.0000

>  <r_epik_Charging_Adjusted_Penalty> (1)
0

>  <i_epik_Tot_Q> (1)
0

>  <i_epik_Tot_abs_Q> (1)
0

>  <s_lp_Force_Field> (1)
S-OPLS

>  <r_lp_Energy> (1)
-3.285024

>  <b_lp_Chiralities_Consistent> (1)
1

$$$$
