11597_1-hexene
                    3D
 Schrodinger Suite 2021-3.
 18 17  0  0  1  0            999 V2000
   -0.6638    1.4628    0.1271 C   0  0  0  0  0  0
   -0.0608    0.0611   -0.0024 C   0  0  0  0  0  0
    1.4721    0.0672   -0.0102 C   0  0  0  0  0  0
    2.0796   -1.3408   -0.1496 C   0  0  0  0  0  0
    3.5825   -1.3337   -0.1133 C   0  0  0  0  0  0
    4.3810   -1.7420   -1.0995 C   0  0  0  0  0  0
   -1.7583    1.4313    0.1290 H   0  0  0  0  0  0
   -0.3497    2.1050   -0.7037 H   0  0  0  0  0  0
   -0.3421    1.9462    1.0567 H   0  0  0  0  0  0
   -0.4153   -0.5710    0.8233 H   0  0  0  0  0  0
   -0.4243   -0.4125   -0.9245 H   0  0  0  0  0  0
    1.8354    0.6974   -0.8329 H   0  0  0  0  0  0
    1.8398    0.5331    0.9152 H   0  0  0  0  0  0
    1.6977   -1.9680    0.6701 H   0  0  0  0  0  0
    1.7310   -1.8014   -1.0829 H   0  0  0  0  0  0
    4.0296   -0.9424    0.8022 H   0  0  0  0  0  0
    3.9792   -2.1350   -2.0308 H   0  0  0  0  0  0
    5.4630   -1.7012   -1.0155 H   0  0  0  0  0  0
  1  2  1  0  0  0
  1  7  1  0  0  0
  1  8  1  0  0  0
  1  9  1  0  0  0
  2  3  1  0  0  0
  2 10  1  0  0  0
  2 11  1  0  0  0
  3  4  1  0  0  0
  3 12  1  0  0  0
  3 13  1  0  0  0
  4  5  1  0  0  0
  4 14  1  0  0  0
  4 15  1  0  0  0
  5  6  2  0  0  0
  5 16  1  0  0  0
  6 17  1  0  0  0
  6 18  1  0  0  0
M  END
>  <i_m_Spin_multiplicity> (1)
1

>  <s_j_Task> (1)
Single Point

>  <s_j_QM_Method> (1)
DFT(b3lyp-d3)

>  <s_j_QM_Basis> (1)
cc-pvtz(-f)

>  <i_j_Number_of_canonical_orbitals> (1)
244

>  <i_j_Geometry_convergence_category> (1)
3

>  <r_j_Gas_Phase_Energy> (1)
-235.944078599116

>  <r_j_Final_Energy> (1)
-235.944078599116

>  <r_j_HOMO> (1)
-0.263393843334105

>  <r_j_LUMO> (1)
0.00402193875829045

>  <r_j_Polarizability> (1)
74.5686996195674

>  <r_j_QM_Dipole_(debye)> (1)
0.437912478659012

>  <r_j_QM_Dipole_X_(debye)> (1)
-0.387453604687136

>  <r_j_QM_Dipole_Y_(debye)> (1)
0.111762942732776

>  <r_j_QM_Dipole_Z_(debye)> (1)
0.170751538241782

>  <r_j_Lowest_Frequency_(cm-1)> (1)
110.560950500447

>  <r_j_Highest_Frequency_(cm-1)> (1)
3168.12820108011

>  <r_j_2nd_Lowest_Frequency_(cm-1)> (1)
144.495527845447

>  <i_j_Num_Negative_Frequencies> (1)
0

>  <r_j_Zero_Point_Energy_(kcal/mol)> (1)
103.559252768481

>  <r_j_Entropy_(cal/mol/K)_298.15K_1.00E+00atm> (1)
83.0884048948043

>  <r_j_Enthalpy_(kcal/mol)_298.15K_1.00E+00atm> (1)
5.25855253801657

>  <r_j_Free_Energy_(kcal/mol)_298.15K_1.00E+00atm> (1)
-19.5142553813693

>  <r_j_Internal_Energy_(kcal/mol)_298.15K_1.00E+00atm> (1)
4.66606694918929

>  <r_j_Heat_Capacity_(cal/mol/K)_298.15K_1.00E+00atm> (1)
26.8391411537027

>  <r_j_ln(Q)_298.15K_1.00E+00atm> (1)
32.9362532175585

>  <r_j_Total_Internal_Energy_(au)_298.15K_1.00E+00atm> (1)
-235.771610572908

>  <r_j_Total_Enthalpy_(au)_298.15K_1.00E+00atm> (1)
-235.770666387016

>  <r_j_Total_Free_Energy_(au)_298.15K_1.00E+00atm> (1)
-235.810144369586

>  <r_lp_tautomer_probability> (1)
1

>  <r_epik_Ionization_Penalty> (1)
  0.0000

>  <r_epik_Ionization_Penalty_Charging> (1)
  0.0000

>  <r_epik_Ionization_Penalty_Neutral> (1)
  0.0000

>  <r_epik_State_Penalty> (1)
  0.0000

>  <r_epik_Charging_Adjusted_Penalty> (1)
0

>  <i_epik_Tot_Q> (1)
0

>  <i_epik_Tot_abs_Q> (1)
0

>  <s_lp_Force_Field> (1)
S-OPLS

>  <r_lp_Energy> (1)
-0.687765

>  <b_lp_Chiralities_Consistent> (1)
1

$$$$
