11611_Cis-2-heptene
                    3D
 Schrodinger Suite 2021-3.
 21 20  0  0  1  0            999 V2000
   -2.1142    1.6183   -0.0922 C   0  0  0  0  0  0
   -0.5899    1.4837   -0.0305 C   0  0  0  0  0  0
   -0.1199    0.0261    0.0342 C   0  0  0  0  0  0
    1.4121   -0.1138    0.1027 C   0  0  0  0  0  0
    1.8676   -1.5466    0.1136 C   0  0  0  0  0  0
    2.5367   -2.1390    1.1051 C   0  0  0  0  0  0
    2.9750   -3.5754    1.1206 C   0  0  0  0  0  0
   -2.4246    2.6673   -0.1387 H   0  0  0  0  0  0
   -2.5853    1.1695    0.7899 H   0  0  0  0  0  0
   -2.5191    1.1109   -0.9754 H   0  0  0  0  0  0
   -0.1409    1.9693   -0.9077 H   0  0  0  0  0  0
   -0.2073    2.0259    0.8451 H   0  0  0  0  0  0
   -0.5635   -0.4677    0.9092 H   0  0  0  0  0  0
   -0.4959   -0.5174   -0.8442 H   0  0  0  0  0  0
    1.8480    0.4050   -0.7646 H   0  0  0  0  0  0
    1.7873    0.4052    0.9944 H   0  0  0  0  0  0
    1.6023   -2.1363   -0.7667 H   0  0  0  0  0  0
    2.7967   -1.5485    1.9855 H   0  0  0  0  0  0
    2.5447   -4.1133    1.9753 H   0  0  0  0  0  0
    4.0653   -3.6586    1.2164 H   0  0  0  0  0  0
    2.6754   -4.0986    0.2069 H   0  0  0  0  0  0
  1  2  1  0  0  0
  1  8  1  0  0  0
  1  9  1  0  0  0
  1 10  1  0  0  0
  2  3  1  0  0  0
  2 11  1  0  0  0
  2 12  1  0  0  0
  3  4  1  0  0  0
  3 13  1  0  0  0
  3 14  1  0  0  0
  4  5  1  0  0  0
  4 15  1  0  0  0
  4 16  1  0  0  0
  5  6  2  0  0  0
  5 17  1  0  0  0
  6  7  1  0  0  0
  6 18  1  0  0  0
  7 19  1  0  0  0
  7 20  1  0  0  0
  7 21  1  0  0  0
M  END
>  <i_m_Spin_multiplicity> (1)
1

>  <s_j_Task> (1)
Single Point

>  <s_j_QM_Method> (1)
DFT(b3lyp-d3)

>  <s_j_QM_Basis> (1)
cc-pvtz(-f)

>  <i_j_Number_of_canonical_orbitals> (1)
285

>  <i_j_Geometry_convergence_category> (1)
3

>  <r_j_Gas_Phase_Energy> (1)
-275.277780229105

>  <r_j_Final_Energy> (1)
-275.277780229105

>  <r_j_HOMO> (1)
-0.256094508974702

>  <r_j_LUMO> (1)
0.00575315567256149

>  <r_j_Polarizability> (1)
88.6586483684127

>  <r_j_QM_Dipole_(debye)> (1)
0.0364108167810359

>  <r_j_QM_Dipole_X_(debye)> (1)
0.000353929090952808

>  <r_j_QM_Dipole_Y_(debye)> (1)
0.0180086183471846

>  <r_j_QM_Dipole_Z_(debye)> (1)
0.0316435139971241

>  <r_j_Lowest_Frequency_(cm-1)> (1)
91.5074824180911

>  <r_j_Highest_Frequency_(cm-1)> (1)
3076.09685250833

>  <r_j_2nd_Lowest_Frequency_(cm-1)> (1)
130.699657221855

>  <i_j_Num_Negative_Frequencies> (1)
0

>  <r_j_Zero_Point_Energy_(kcal/mol)> (1)
121.176376313799

>  <r_j_Entropy_(cal/mol/K)_298.15K_1.00E+00atm> (1)
89.7103806523346

>  <r_j_Enthalpy_(kcal/mol)_298.15K_1.00E+00atm> (1)
6.09796707777827

>  <r_j_Free_Energy_(kcal/mol)_298.15K_1.00E+00atm> (1)
-20.6491829137153

>  <r_j_Internal_Energy_(kcal/mol)_298.15K_1.00E+00atm> (1)
5.505481488951

>  <r_j_Heat_Capacity_(cal/mol/K)_298.15K_1.00E+00atm> (1)
32.0654489527789

>  <r_j_ln(Q)_298.15K_1.00E+00atm> (1)
34.85178931455

>  <r_j_Total_Internal_Energy_(au)_298.15K_1.00E+00atm> (1)
-275.075899837081

>  <r_j_Total_Enthalpy_(au)_298.15K_1.00E+00atm> (1)
-275.074955651188

>  <r_j_Total_Free_Energy_(au)_298.15K_1.00E+00atm> (1)
-275.117579948144

>  <r_lp_tautomer_probability> (1)
1

>  <r_epik_Ionization_Penalty> (1)
  0.0000

>  <r_epik_Ionization_Penalty_Charging> (1)
  0.0000

>  <r_epik_Ionization_Penalty_Neutral> (1)
  0.0000

>  <r_epik_State_Penalty> (1)
  0.0000

>  <r_epik_Charging_Adjusted_Penalty> (1)
0

>  <i_epik_Tot_Q> (1)
0

>  <i_epik_Tot_abs_Q> (1)
0

>  <s_lp_Force_Field> (1)
S-OPLS

>  <r_lp_Energy> (1)
-2.748808

>  <b_lp_Chiralities_Consistent> (1)
1

$$$$
