11612_Trans-3-heptene
                    3D
 Schrodinger Suite 2021-3.
 21 20  0  0  1  0            999 V2000
   -2.1925    1.4664    0.0875 C   0  0  0  0  0  0
   -0.6628    1.5174    0.0488 C   0  0  0  0  0  0
   -0.0226    0.1231   -0.0900 C   0  0  0  0  0  0
    1.4800    0.1698   -0.0773 C   0  0  0  0  0  0
    2.2762   -0.1928   -1.0853 C   0  0  0  0  0  0
    3.7795   -0.1380   -1.0747 C   0  0  0  0  0  0
    4.4195   -1.5265   -1.2433 C   0  0  0  0  0  0
   -2.6255    2.4676    0.1824 H   0  0  0  0  0  0
   -2.5460    0.8676    0.9349 H   0  0  0  0  0  0
   -2.5951    1.0140   -0.8261 H   0  0  0  0  0  0
   -0.3286    2.1449   -0.7869 H   0  0  0  0  0  0
   -0.2851    1.9981    0.9613 H   0  0  0  0  0  0
   -0.3799   -0.5079    0.7380 H   0  0  0  0  0  0
   -0.3757   -0.3506   -1.0153 H   0  0  0  0  0  0
    1.9348    0.5610    0.8356 H   0  0  0  0  0  0
    1.8225   -0.5846   -1.9986 H   0  0  0  0  0  0
    4.1270    0.5128   -1.8902 H   0  0  0  0  0  0
    4.1279    0.3211   -0.1414 H   0  0  0  0  0  0
    5.5122   -1.4596   -1.2683 H   0  0  0  0  0  0
    4.0915   -2.0003   -2.1754 H   0  0  0  0  0  0
    4.1355   -2.1876   -0.4181 H   0  0  0  0  0  0
  1  2  1  0  0  0
  1  8  1  0  0  0
  1  9  1  0  0  0
  1 10  1  0  0  0
  2  3  1  0  0  0
  2 11  1  0  0  0
  2 12  1  0  0  0
  3  4  1  0  0  0
  3 13  1  0  0  0
  3 14  1  0  0  0
  4  5  2  0  0  0
  4 15  1  0  0  0
  5  6  1  0  0  0
  5 16  1  0  0  0
  6  7  1  0  0  0
  6 17  1  0  0  0
  6 18  1  0  0  0
  7 19  1  0  0  0
  7 20  1  0  0  0
  7 21  1  0  0  0
M  END
>  <i_m_Spin_multiplicity> (1)
1

>  <s_j_Task> (1)
Single Point

>  <s_j_QM_Method> (1)
DFT(b3lyp-d3)

>  <s_j_QM_Basis> (1)
cc-pvtz(-f)

>  <i_j_Number_of_canonical_orbitals> (1)
285

>  <i_j_Geometry_convergence_category> (1)
0

>  <r_j_Gas_Phase_Energy> (1)
-275.277554217919

>  <r_j_Final_Energy> (1)
-275.277554217919

>  <r_j_HOMO> (1)
-0.241571756049608

>  <r_j_LUMO> (1)
0.0173047956508338

>  <r_j_Polarizability> (1)
89.3067652954636

>  <r_j_QM_Dipole_(debye)> (1)
0.0926865760698893

>  <r_j_QM_Dipole_X_(debye)> (1)
0.0180887557537766

>  <r_j_QM_Dipole_Y_(debye)> (1)
0.0908520597295212

>  <r_j_QM_Dipole_Z_(debye)> (1)
0.00308245709509595

>  <r_j_Lowest_Frequency_(cm-1)> (1)
82.6249654703549

>  <r_j_Highest_Frequency_(cm-1)> (1)
3067.53076045344

>  <r_j_2nd_Lowest_Frequency_(cm-1)> (1)
109.509083091573

>  <i_j_Num_Negative_Frequencies> (1)
0

>  <r_j_Zero_Point_Energy_(kcal/mol)> (1)
121.257583431682

>  <r_j_Entropy_(cal/mol/K)_298.15K_1.00E+00atm> (1)
89.9823255596633

>  <r_j_Enthalpy_(kcal/mol)_298.15K_1.00E+00atm> (1)
6.10249305043501

>  <r_j_Free_Energy_(kcal/mol)_298.15K_1.00E+00atm> (1)
-20.7257373151786

>  <r_j_Internal_Energy_(kcal/mol)_298.15K_1.00E+00atm> (1)
5.51000746160774

>  <r_j_Heat_Capacity_(cal/mol/K)_298.15K_1.00E+00atm> (1)
31.9946081121704

>  <r_j_ln(Q)_298.15K_1.00E+00atm> (1)
34.9809981981194

>  <r_j_Total_Internal_Energy_(au)_298.15K_1.00E+00atm> (1)
-275.075537201517

>  <r_j_Total_Enthalpy_(au)_298.15K_1.00E+00atm> (1)
-275.074593015625

>  <r_j_Total_Free_Energy_(au)_298.15K_1.00E+00atm> (1)
-275.117346522381

>  <r_lp_tautomer_probability> (1)
1

>  <r_epik_Ionization_Penalty> (1)
  0.0000

>  <r_epik_Ionization_Penalty_Charging> (1)
  0.0000

>  <r_epik_Ionization_Penalty_Neutral> (1)
  0.0000

>  <r_epik_State_Penalty> (1)
  0.0000

>  <r_epik_Charging_Adjusted_Penalty> (1)
0

>  <i_epik_Tot_Q> (1)
0

>  <i_epik_Tot_abs_Q> (1)
0

>  <s_lp_Force_Field> (1)
S-OPLS

>  <r_lp_Energy> (1)
-2.677234

>  <b_lp_Chiralities_Consistent> (1)
1

$$$$
