11636_N-heptacosane
                    3D
 Schrodinger Suite 2021-3.
 83 82  0  0  1  0            999 V2000
   -5.7892   12.2373    4.6927 C   0  0  0  0  0  0
   -6.0617   11.2631    3.5428 C   0  0  0  0  0  0
   -5.2536    9.9640    3.6487 C   0  0  0  0  0  0
   -5.5251    8.9869    2.4996 C   0  0  0  0  0  0
   -4.7268    7.6816    2.5965 C   0  0  0  0  0  0
   -5.0150    6.7142    1.4430 C   0  0  0  0  0  0
   -4.2356    5.3968    1.5299 C   0  0  0  0  0  0
   -4.5485    4.4439    0.3683 C   0  0  0  0  0  0
   -3.8694    3.0697    0.4632 C   0  0  0  0  0  0
   -2.3382    3.0997    0.3607 C   0  0  0  0  0  0
   -1.7196    1.6971    0.3478 C   0  0  0  0  0  0
   -0.1904    1.6886    0.2354 C   0  0  0  0  0  0
    0.3930    0.2714    0.1981 C   0  0  0  0  0  0
    1.9211    0.2227    0.0814 C   0  0  0  0  0  0
    2.4637   -1.2104    0.0329 C   0  0  0  0  0  0
    3.9902   -1.3035   -0.0744 C   0  0  0  0  0  0
    4.4911   -2.7519   -0.1201 C   0  0  0  0  0  0
    6.0156   -2.8890   -0.2053 C   0  0  0  0  0  0
    6.4772   -4.3509   -0.2349 C   0  0  0  0  0  0
    7.9990   -4.5276   -0.2884 C   0  0  0  0  0  0
    8.4267   -6.0002   -0.2916 C   0  0  0  0  0  0
    9.9453   -6.2089   -0.3090 C   0  0  0  0  0  0
   10.3467   -7.6886   -0.2814 C   0  0  0  0  0  0
   11.8624   -7.9188   -0.2639 C   0  0  0  0  0  0
   12.2400   -9.4057   -0.2151 C   0  0  0  0  0  0
   13.7475   -9.6796   -0.0963 C   0  0  0  0  0  0
   14.5644   -9.2290   -1.3130 C   0  0  0  0  0  0
   -6.3788   13.1547    4.5919 H   0  0  0  0  0  0
   -4.7313   12.5225    4.7254 H   0  0  0  0  0  0
   -6.0382   11.7852    5.6597 H   0  0  0  0  0  0
   -7.1327   11.0198    3.5128 H   0  0  0  0  0  0
   -5.8355   11.7515    2.5851 H   0  0  0  0  0  0
   -4.1810   10.2047    3.6782 H   0  0  0  0  0  0
   -5.4794    9.4731    4.6065 H   0  0  0  0  0  0
   -6.5990    8.7524    2.4703 H   0  0  0  0  0  0
   -5.2984    9.4800    1.5433 H   0  0  0  0  0  0
   -3.6519    7.9116    2.6210 H   0  0  0  0  0  0
   -4.9523    7.1868    3.5521 H   0  0  0  0  0  0
   -6.0923    6.4955    1.4158 H   0  0  0  0  0  0
   -4.7845    7.2092    0.4886 H   0  0  0  0  0  0
   -3.1602    5.6160    1.5576 H   0  0  0  0  0  0
   -4.4691    4.8968    2.4813 H   0  0  0  0  0  0
   -5.6363    4.2976    0.3185 H   0  0  0  0  0  0
   -4.2646    4.9240   -0.5794 H   0  0  0  0  0  0
   -4.1589    2.5865    1.4076 H   0  0  0  0  0  0
   -4.2612    2.4267   -0.3369 H   0  0  0  0  0  0
   -2.0469    3.6355   -0.5546 H   0  0  0  0  0  0
   -1.9155    3.6730    1.1963 H   0  0  0  0  0  0
   -2.0179    1.1616    1.2608 H   0  0  0  0  0  0
   -2.1449    1.1238   -0.4887 H   0  0  0  0  0  0
    0.1123    2.2324   -0.6710 H   0  0  0  0  0  0
    0.2429    2.2423    1.0806 H   0  0  0  0  0  0
    0.0834   -0.2702    1.1036 H   0  0  0  0  0  0
   -0.0498   -0.2773   -0.6457 H   0  0  0  0  0  0
    2.2373    0.7651   -0.8212 H   0  0  0  0  0  0
    2.3710    0.7571    0.9303 H   0  0  0  0  0  0
    2.1332   -1.7507    0.9318 H   0  0  0  0  0  0
    2.0097   -1.7385   -0.8181 H   0  0  0  0  0  0
    4.3287   -0.7691   -0.9736 H   0  0  0  0  0  0
    4.4495   -0.7839    0.7787 H   0  0  0  0  0  0
    4.1325   -3.2839    0.7730 H   0  0  0  0  0  0
    4.0336   -3.2648   -0.9784 H   0  0  0  0  0  0
    6.3823   -2.3693   -1.1019 H   0  0  0  0  0  0
    6.4766   -2.3777    0.6520 H   0  0  0  0  0  0
    6.0873   -4.8681    0.6538 H   0  0  0  0  0  0
    6.0231   -4.8562   -1.0995 H   0  0  0  0  0  0
    8.3964   -4.0273   -1.1830 H   0  0  0  0  0  0
    8.4554   -4.0178    0.5723 H   0  0  0  0  0  0
    8.0061   -6.4979    0.5941 H   0  0  0  0  0  0
    7.9807   -6.5055   -1.1603 H   0  0  0  0  0  0
   10.3719   -5.7295   -1.2017 H   0  0  0  0  0  0
   10.3927   -5.6950    0.5539 H   0  0  0  0  0  0
    9.8988   -8.1666    0.6019 H   0  0  0  0  0  0
    9.9116   -8.1993   -1.1527 H   0  0  0  0  0  0
   12.3075   -7.4457   -1.1490 H   0  0  0  0  0  0
   12.2979   -7.4067    0.6065 H   0  0  0  0  0  0
   11.7268   -9.8704    0.6379 H   0  0  0  0  0  0
   11.8505   -9.9073   -1.1130 H   0  0  0  0  0  0
   14.1329   -9.1863    0.8068 H   0  0  0  0  0  0
   13.8997  -10.7557    0.0573 H   0  0  0  0  0  0
   15.6198   -9.4999   -1.2041 H   0  0  0  0  0  0
   14.5165   -8.1447   -1.4557 H   0  0  0  0  0  0
   14.1921   -9.7002   -2.2304 H   0  0  0  0  0  0
  1  2  1  0  0  0
  1 28  1  0  0  0
  1 29  1  0  0  0
  1 30  1  0  0  0
  2  3  1  0  0  0
  2 31  1  0  0  0
  2 32  1  0  0  0
  3  4  1  0  0  0
  3 33  1  0  0  0
  3 34  1  0  0  0
  4  5  1  0  0  0
  4 35  1  0  0  0
  4 36  1  0  0  0
  5  6  1  0  0  0
  5 37  1  0  0  0
  5 38  1  0  0  0
  6  7  1  0  0  0
  6 39  1  0  0  0
  6 40  1  0  0  0
  7  8  1  0  0  0
  7 41  1  0  0  0
  7 42  1  0  0  0
  8  9  1  0  0  0
  8 43  1  0  0  0
  8 44  1  0  0  0
  9 10  1  0  0  0
  9 45  1  0  0  0
  9 46  1  0  0  0
 10 11  1  0  0  0
 10 47  1  0  0  0
 10 48  1  0  0  0
 11 12  1  0  0  0
 11 49  1  0  0  0
 11 50  1  0  0  0
 12 13  1  0  0  0
 12 51  1  0  0  0
 12 52  1  0  0  0
 13 14  1  0  0  0
 13 53  1  0  0  0
 13 54  1  0  0  0
 14 15  1  0  0  0
 14 55  1  0  0  0
 14 56  1  0  0  0
 15 16  1  0  0  0
 15 57  1  0  0  0
 15 58  1  0  0  0
 16 17  1  0  0  0
 16 59  1  0  0  0
 16 60  1  0  0  0
 17 18  1  0  0  0
 17 61  1  0  0  0
 17 62  1  0  0  0
 18 19  1  0  0  0
 18 63  1  0  0  0
 18 64  1  0  0  0
 19 20  1  0  0  0
 19 65  1  0  0  0
 19 66  1  0  0  0
 20 21  1  0  0  0
 20 67  1  0  0  0
 20 68  1  0  0  0
 21 22  1  0  0  0
 21 69  1  0  0  0
 21 70  1  0  0  0
 22 23  1  0  0  0
 22 71  1  0  0  0
 22 72  1  0  0  0
 23 24  1  0  0  0
 23 73  1  0  0  0
 23 74  1  0  0  0
 24 25  1  0  0  0
 24 75  1  0  0  0
 24 76  1  0  0  0
 25 26  1  0  0  0
 25 77  1  0  0  0
 25 78  1  0  0  0
 26 27  1  0  0  0
 26 79  1  0  0  0
 26 80  1  0  0  0
 27 81  1  0  0  0
 27 82  1  0  0  0
 27 83  1  0  0  0
M  END
>  <i_m_Spin_multiplicity> (1)
1

>  <s_j_Task> (1)
Single Point

>  <s_j_QM_Method> (1)
DFT(b3lyp-d3)

>  <s_j_QM_Basis> (1)
cc-pvtz(-f)

>  <i_j_Number_of_canonical_orbitals> (1)
1116

>  <i_j_Geometry_convergence_category> (1)
3

>  <r_j_Gas_Phase_Energy> (1)
-1063.09845109415

>  <r_j_Final_Energy> (1)
-1063.09845109415

>  <r_j_HOMO> (1)
-0.267928744452536

>  <r_j_LUMO> (1)
-0.0124622466953862

>  <r_j_Polarizability> (1)
339.833408825489

>  <r_j_QM_Dipole_(debye)> (1)
0.0651409764014773

>  <r_j_QM_Dipole_X_(debye)> (1)
-0.0356507162409809

>  <r_j_QM_Dipole_Y_(debye)> (1)
-0.0540299812599158

>  <r_j_QM_Dipole_Z_(debye)> (1)
-0.00728933214334684

>  <r_j_Lowest_Frequency_(cm-1)> (1)
20.6649789935913

>  <r_j_Highest_Frequency_(cm-1)> (1)
3051.13346451457

>  <r_j_2nd_Lowest_Frequency_(cm-1)> (1)
26.0522407614826

>  <i_j_Num_Negative_Frequencies> (1)
0

>  <r_j_Zero_Point_Energy_(kcal/mol)> (1)
493.68129991759

>  <r_j_Entropy_(cal/mol/K)_298.15K_1.00E+00atm> (1)
202.576985235933

>  <r_j_Enthalpy_(kcal/mol)_298.15K_1.00E+00atm> (1)
21.57918134136

>  <r_j_Free_Energy_(kcal/mol)_298.15K_1.00E+00atm> (1)
-38.8191468067335

>  <r_j_Internal_Energy_(kcal/mol)_298.15K_1.00E+00atm> (1)
20.9866957525328

>  <r_j_Heat_Capacity_(cal/mol/K)_298.15K_1.00E+00atm> (1)
128.267261523735

>  <r_j_ln(Q)_298.15K_1.00E+00atm> (1)
65.5191409525579

>  <r_j_Total_Internal_Energy_(au)_298.15K_1.00E+00atm> (1)
-1062.27827543103

>  <r_j_Total_Enthalpy_(au)_298.15K_1.00E+00atm> (1)
-1062.27733124514

>  <r_j_Total_Free_Energy_(au)_298.15K_1.00E+00atm> (1)
-1062.37358210833

>  <r_lp_tautomer_probability> (1)
1

>  <r_epik_Ionization_Penalty> (1)
  0.0000

>  <r_epik_Ionization_Penalty_Charging> (1)
  0.0000

>  <r_epik_Ionization_Penalty_Neutral> (1)
  0.0000

>  <r_epik_State_Penalty> (1)
  0.0000

>  <r_epik_Charging_Adjusted_Penalty> (1)
0

>  <i_epik_Tot_Q> (1)
0

>  <i_epik_Tot_abs_Q> (1)
0

>  <s_lp_Force_Field> (1)
S-OPLS

>  <r_lp_Energy> (1)
13.910349

>  <b_lp_Chiralities_Consistent> (1)
1

$$$$
