11635_Octadecane
                    3D
 Schrodinger Suite 2021-3.
 56 55  0  0  1  0            999 V2000
   -8.4736    2.2668   -3.1358 C   0  0  0  0  0  0
   -6.9611    2.0892   -2.9727 C   0  0  0  0  0  0
   -6.5611    0.6359   -2.6803 C   0  0  0  0  0  0
   -5.0457    0.3981   -2.5936 C   0  0  0  0  0  0
   -4.3572    1.0974   -1.4137 C   0  0  0  0  0  0
   -2.8516    0.8160   -1.3417 C   0  0  0  0  0  0
   -2.1651    1.5034   -0.1535 C   0  0  0  0  0  0
   -0.6360    1.3583   -0.1308 C   0  0  0  0  0  0
   -0.1325   -0.0833    0.0253 C   0  0  0  0  0  0
    1.3966   -0.1690    0.1305 C   0  0  0  0  0  0
    1.9550   -1.5995    0.1709 C   0  0  0  0  0  0
    1.5497   -2.4095    1.4098 C   0  0  0  0  0  0
    2.2024   -3.7960    1.4583 C   0  0  0  0  0  0
    1.8116   -4.6171    2.6923 C   0  0  0  0  0  0
    2.4756   -5.9981    2.7356 C   0  0  0  0  0  0
    2.0973   -6.8243    3.9699 C   0  0  0  0  0  0
    2.7684   -8.2028    4.0078 C   0  0  0  0  0  0
    2.3888   -9.0226    5.2443 C   0  0  0  0  0  0
   -8.7372    3.3092   -3.3432 H   0  0  0  0  0  0
   -9.0057    1.9628   -2.2268 H   0  0  0  0  0  0
   -8.8561    1.6548   -3.9609 H   0  0  0  0  0  0
   -6.4497    2.4253   -3.8856 H   0  0  0  0  0  0
   -6.6059    2.7436   -2.1671 H   0  0  0  0  0  0
   -7.0348    0.3119   -1.7419 H   0  0  0  0  0  0
   -6.9779   -0.0081   -3.4669 H   0  0  0  0  0  0
   -4.8570   -0.6817   -2.5218 H   0  0  0  0  0  0
   -4.5751    0.7255   -3.5322 H   0  0  0  0  0  0
   -4.5125    2.1823   -1.4780 H   0  0  0  0  0  0
   -4.8344    0.7779   -0.4756 H   0  0  0  0  0  0
   -2.6915   -0.2690   -1.2908 H   0  0  0  0  0  0
   -2.3761    1.1490   -2.2762 H   0  0  0  0  0  0
   -2.4184    2.5723   -0.1698 H   0  0  0  0  0  0
   -2.5825    1.1079    0.7839 H   0  0  0  0  0  0
   -0.2189    1.7879   -1.0532 H   0  0  0  0  0  0
   -0.2338    1.9638    0.6930 H   0  0  0  0  0  0
   -0.5969   -0.5285    0.9154 H   0  0  0  0  0  0
   -0.4638   -0.6906   -0.8277 H   0  0  0  0  0  0
    1.8377    0.3587   -0.7263 H   0  0  0  0  0  0
    1.7298    0.3764    1.0254 H   0  0  0  0  0  0
    1.6362   -2.1383   -0.7334 H   0  0  0  0  0  0
    3.0517   -1.5537    0.1240 H   0  0  0  0  0  0
    1.8214   -1.8468    2.3151 H   0  0  0  0  0  0
    0.4585   -2.5266    1.4416 H   0  0  0  0  0  0
    1.9337   -4.3552    0.5503 H   0  0  0  0  0  0
    3.2959   -3.6834    1.4297 H   0  0  0  0  0  0
    2.0770   -4.0571    3.6007 H   0  0  0  0  0  0
    0.7189   -4.7368    2.7198 H   0  0  0  0  0  0
    2.2075   -6.5580    1.8280 H   0  0  0  0  0  0
    3.5679   -5.8758    2.7025 H   0  0  0  0  0  0
    2.3646   -6.2654    4.8786 H   0  0  0  0  0  0
    1.0054   -6.9507    4.0039 H   0  0  0  0  0  0
    2.4997   -8.7602    3.0999 H   0  0  0  0  0  0
    3.8590   -8.0743    3.9722 H   0  0  0  0  0  0
    2.8810  -10.0008    5.2464 H   0  0  0  0  0  0
    1.3068   -9.1933    5.2870 H   0  0  0  0  0  0
    2.6763   -8.5023    6.1653 H   0  0  0  0  0  0
  1  2  1  0  0  0
  1 19  1  0  0  0
  1 20  1  0  0  0
  1 21  1  0  0  0
  2  3  1  0  0  0
  2 22  1  0  0  0
  2 23  1  0  0  0
  3  4  1  0  0  0
  3 24  1  0  0  0
  3 25  1  0  0  0
  4  5  1  0  0  0
  4 26  1  0  0  0
  4 27  1  0  0  0
  5  6  1  0  0  0
  5 28  1  0  0  0
  5 29  1  0  0  0
  6  7  1  0  0  0
  6 30  1  0  0  0
  6 31  1  0  0  0
  7  8  1  0  0  0
  7 32  1  0  0  0
  7 33  1  0  0  0
  8  9  1  0  0  0
  8 34  1  0  0  0
  8 35  1  0  0  0
  9 10  1  0  0  0
  9 36  1  0  0  0
  9 37  1  0  0  0
 10 11  1  0  0  0
 10 38  1  0  0  0
 10 39  1  0  0  0
 11 12  1  0  0  0
 11 40  1  0  0  0
 11 41  1  0  0  0
 12 13  1  0  0  0
 12 42  1  0  0  0
 12 43  1  0  0  0
 13 14  1  0  0  0
 13 44  1  0  0  0
 13 45  1  0  0  0
 14 15  1  0  0  0
 14 46  1  0  0  0
 14 47  1  0  0  0
 15 16  1  0  0  0
 15 48  1  0  0  0
 15 49  1  0  0  0
 16 17  1  0  0  0
 16 50  1  0  0  0
 16 51  1  0  0  0
 17 18  1  0  0  0
 17 52  1  0  0  0
 17 53  1  0  0  0
 18 54  1  0  0  0
 18 55  1  0  0  0
 18 56  1  0  0  0
M  END
>  <i_m_Spin_multiplicity> (1)
1

>  <s_j_Task> (1)
Single Point

>  <s_j_QM_Method> (1)
DFT(b3lyp-d3)

>  <s_j_QM_Basis> (1)
cc-pvtz(-f)

>  <i_j_Number_of_canonical_orbitals> (1)
750

>  <i_j_Geometry_convergence_category> (1)
3

>  <r_j_Gas_Phase_Energy> (1)
-709.132962516221

>  <r_j_Final_Energy> (1)
-709.132962516221

>  <r_j_HOMO> (1)
-0.289205178492464

>  <r_j_LUMO> (1)
-0.0314580986268441

>  <r_j_Polarizability> (1)
224.294152901154

>  <r_j_QM_Dipole_(debye)> (1)
0.0966149420353543

>  <r_j_QM_Dipole_X_(debye)> (1)
0.0795806592556608

>  <r_j_QM_Dipole_Y_(debye)> (1)
0.0331069896763782

>  <r_j_QM_Dipole_Z_(debye)> (1)
-0.0436496612987716

>  <r_j_Lowest_Frequency_(cm-1)> (1)
26.1343912068415

>  <r_j_Highest_Frequency_(cm-1)> (1)
3045.69917112363

>  <r_j_2nd_Lowest_Frequency_(cm-1)> (1)
46.7702686491595

>  <i_j_Num_Negative_Frequencies> (1)
0

>  <r_j_Zero_Point_Energy_(kcal/mol)> (1)
333.048933069614

>  <r_j_Entropy_(cal/mol/K)_298.15K_1.00E+00atm> (1)
153.83095362904

>  <r_j_Enthalpy_(kcal/mol)_298.15K_1.00E+00atm> (1)
14.5777058018565

>  <r_j_Free_Energy_(kcal/mol)_298.15K_1.00E+00atm> (1)
-31.2869930226418

>  <r_j_Internal_Energy_(kcal/mol)_298.15K_1.00E+00atm> (1)
13.9852202130292

>  <r_j_Heat_Capacity_(cal/mol/K)_298.15K_1.00E+00atm> (1)
85.4024488558294

>  <r_j_ln(Q)_298.15K_1.00E+00atm> (1)
52.806335905265

>  <r_j_Total_Internal_Energy_(au)_298.15K_1.00E+00atm> (1)
-708.579928387058

>  <r_j_Total_Enthalpy_(au)_298.15K_1.00E+00atm> (1)
-708.578984201166

>  <r_j_Total_Free_Energy_(au)_298.15K_1.00E+00atm> (1)
-708.652074251623

>  <r_lp_tautomer_probability> (1)
1

>  <r_epik_Ionization_Penalty> (1)
  0.0000

>  <r_epik_Ionization_Penalty_Charging> (1)
  0.0000

>  <r_epik_Ionization_Penalty_Neutral> (1)
  0.0000

>  <r_epik_State_Penalty> (1)
  0.0000

>  <r_epik_Charging_Adjusted_Penalty> (1)
0

>  <i_epik_Tot_Q> (1)
0

>  <i_epik_Tot_abs_Q> (1)
0

>  <s_lp_Force_Field> (1)
S-OPLS

>  <r_lp_Energy> (1)
9.452685

>  <b_lp_Chiralities_Consistent> (1)
1

$$$$
