11669_2,3,3-Trimethyl-1-butene
                    3D
 Schrodinger Suite 2021-3.
 21 20  0  0  1  0            999 V2000
   -0.0389   -0.0572    0.0001 C   0  0  0  0  0  0
    1.4854   -0.0691   -0.0001 C   0  0  0  0  0  0
    2.1221   -1.2452    0.0001 C   0  0  0  0  0  0
    2.2058    1.2849   -0.0001 C   0  0  0  0  0  0
    1.8005    2.0811   -1.2635 C   0  0  0  0  0  0
    3.7373    1.1354   -0.0001 C   0  0  0  0  0  0
    1.8004    2.0807    1.2635 C   0  0  0  0  0  0
   -0.4602    0.9498   -0.0020 H   0  0  0  0  0  0
   -0.4327   -0.5712    0.8832 H   0  0  0  0  0  0
   -0.4330   -0.5752   -0.8805 H   0  0  0  0  0  0
    1.5643   -2.1786    0.0001 H   0  0  0  0  0  0
    3.2014   -1.3375    0.0002 H   0  0  0  0  0  0
    2.2987    3.0569   -1.2727 H   0  0  0  0  0  0
    0.7227    2.2620   -1.3112 H   0  0  0  0  0  0
    2.0923    1.5414   -2.1705 H   0  0  0  0  0  0
    4.0887    0.6002   -0.8878 H   0  0  0  0  0  0
    4.0881    0.5978    0.8863 H   0  0  0  0  0  0
    4.2089    2.1238    0.0014 H   0  0  0  0  0  0
    2.2991    3.0563    1.2735 H   0  0  0  0  0  0
    2.0916    1.5404    2.1703 H   0  0  0  0  0  0
    0.7227    2.2620    1.3109 H   0  0  0  0  0  0
  1  2  1  0  0  0
  1  8  1  0  0  0
  1  9  1  0  0  0
  1 10  1  0  0  0
  2  3  2  0  0  0
  2  4  1  0  0  0
  3 11  1  0  0  0
  3 12  1  0  0  0
  4  5  1  0  0  0
  4  6  1  0  0  0
  4  7  1  0  0  0
  5 13  1  0  0  0
  5 14  1  0  0  0
  5 15  1  0  0  0
  6 16  1  0  0  0
  6 17  1  0  0  0
  6 18  1  0  0  0
  7 19  1  0  0  0
  7 20  1  0  0  0
  7 21  1  0  0  0
M  END
>  <i_m_Spin_multiplicity> (1)
1

>  <s_j_Task> (1)
Single Point

>  <s_j_QM_Method> (1)
DFT(b3lyp-d3)

>  <s_j_QM_Basis> (1)
cc-pvtz(-f)

>  <i_j_Number_of_canonical_orbitals> (1)
284

>  <i_j_Geometry_convergence_category> (1)
0

>  <r_j_Gas_Phase_Energy> (1)
-275.27437621105

>  <r_j_Final_Energy> (1)
-275.27437621105

>  <r_j_HOMO> (1)
-0.246352377898033

>  <r_j_LUMO> (1)
0.00818918329116275

>  <r_j_Polarizability> (1)
84.3777675845154

>  <r_j_QM_Dipole_(debye)> (1)
0.486661007725971

>  <r_j_QM_Dipole_X_(debye)> (1)
-0.271461109748705

>  <r_j_QM_Dipole_Y_(debye)> (1)
0.403915321481105

>  <r_j_QM_Dipole_Z_(debye)> (1)
0.000464120322921788

>  <r_j_Lowest_Frequency_(cm-1)> (1)
-33.6674579727953

>  <r_j_Highest_Frequency_(cm-1)> (1)
3183.72658879894

>  <r_j_2nd_Lowest_Frequency_(cm-1)> (1)
149.898213160596

>  <i_j_Num_Negative_Frequencies> (1)
1

>  <r_j_Zero_Point_Energy_(kcal/mol)> (1)
120.575401501681

>  <r_j_Entropy_(cal/mol/K)_298.15K_1.00E+00atm> (1)
83.4541748143473

>  <r_j_Enthalpy_(kcal/mol)_298.15K_1.00E+00atm> (1)
5.50287267573897

>  <r_j_Free_Energy_(kcal/mol)_298.15K_1.00E+00atm> (1)
-19.3789895451587

>  <r_j_Internal_Energy_(kcal/mol)_298.15K_1.00E+00atm> (1)
4.91038708691169

>  <r_j_Heat_Capacity_(cal/mol/K)_298.15K_1.00E+00atm> (1)
31.5665751616971

>  <r_j_ln(Q)_298.15K_1.00E+00atm> (1)
32.7079508946642

>  <r_j_Total_Internal_Energy_(au)_298.15K_1.00E+00atm> (1)
-275.074401876657

>  <r_j_Total_Enthalpy_(au)_298.15K_1.00E+00atm> (1)
-275.073457690764

>  <r_j_Total_Free_Energy_(au)_298.15K_1.00E+00atm> (1)
-275.113109462427

>  <r_lp_tautomer_probability> (1)
1

>  <r_epik_Ionization_Penalty> (1)
  0.0000

>  <r_epik_Ionization_Penalty_Charging> (1)
  0.0000

>  <r_epik_Ionization_Penalty_Neutral> (1)
  0.0000

>  <r_epik_State_Penalty> (1)
  0.0000

>  <r_epik_Charging_Adjusted_Penalty> (1)
0

>  <i_epik_Tot_Q> (1)
0

>  <i_epik_Tot_abs_Q> (1)
0

>  <s_lp_Force_Field> (1)
S-OPLS

>  <r_lp_Energy> (1)
6.18493

>  <b_lp_Chiralities_Consistent> (1)
1

$$$$
