11724_Methyl nitrate
                    3D
 Schrodinger Suite 2021-3.
  8  7  0  0  1  0            999 V2000
   -0.0248    0.0314    0.1858 C   0  0  0  0  0  0
    1.3005   -0.0389   -0.3711 O   0  0  0  0  0  0
    1.9583   -1.2612   -0.0880 N   0  3  1  0  0  0
    3.0677   -1.3124   -0.5590 O   0  0  0  0  0  0
    1.3527   -2.0831    0.5714 O   0  5  0  0  0  0
   -0.3767    1.0155   -0.1261 H   0  0  0  0  0  0
    0.0017   -0.0408    1.2755 H   0  0  0  0  0  0
   -0.6654   -0.7540   -0.2216 H   0  0  0  0  0  0
  1  2  1  0  0  0
  1  6  1  0  0  0
  1  7  1  0  0  0
  1  8  1  0  0  0
  2  3  1  0  0  0
  3  4  2  0  0  0
  3  5  1  0  0  0
M  END
>  <i_m_Spin_multiplicity> (1)
1

>  <s_j_Task> (1)
Single Point

>  <s_j_QM_Method> (1)
DFT(b3lyp-d3)

>  <s_j_QM_Basis> (1)
cc-pvtz(-f)

>  <i_j_Number_of_canonical_orbitals> (1)
142

>  <i_j_Geometry_convergence_category> (1)
1

>  <r_j_Gas_Phase_Energy> (1)
-320.311571314824

>  <r_j_Final_Energy> (1)
-320.311571314824

>  <r_j_HOMO> (1)
-0.331604724162922

>  <r_j_LUMO> (1)
-0.0821168469235098

>  <r_j_Polarizability> (1)
34.1909522222596

>  <r_j_QM_Dipole_(debye)> (1)
3.11683225330818

>  <r_j_QM_Dipole_X_(debye)> (1)
-2.67765898061204

>  <r_j_QM_Dipole_Y_(debye)> (1)
1.52376711018656

>  <r_j_QM_Dipole_Z_(debye)> (1)
0.472143487431088

>  <r_j_Lowest_Frequency_(cm-1)> (1)
165.274994967714

>  <r_j_Highest_Frequency_(cm-1)> (1)
3111.73532233847

>  <r_j_2nd_Lowest_Frequency_(cm-1)> (1)
288.521994399941

>  <i_j_Num_Negative_Frequencies> (1)
0

>  <r_j_Zero_Point_Energy_(kcal/mol)> (1)
33.9239496248762

>  <r_j_Entropy_(cal/mol/K)_298.15K_1.00E+00atm> (1)
70.4737876444265

>  <r_j_Enthalpy_(kcal/mol)_298.15K_1.00E+00atm> (1)
3.59415778519164

>  <r_j_Free_Energy_(kcal/mol)_298.15K_1.00E+00atm> (1)
-17.4176020009941

>  <r_j_Internal_Energy_(kcal/mol)_298.15K_1.00E+00atm> (1)
3.00167219636437

>  <r_j_Heat_Capacity_(cal/mol/K)_298.15K_1.00E+00atm> (1)
15.5205131241742

>  <r_j_ln(Q)_298.15K_1.00E+00atm> (1)
29.3975116516662

>  <r_j_Total_Internal_Energy_(au)_298.15K_1.00E+00atm> (1)
-320.252726590423

>  <r_j_Total_Enthalpy_(au)_298.15K_1.00E+00atm> (1)
-320.25178240453

>  <r_j_Total_Free_Energy_(au)_298.15K_1.00E+00atm> (1)
-320.28526677535

>  <r_lp_tautomer_probability> (1)
1

>  <r_epik_Ionization_Penalty> (1)
  0.0000

>  <r_epik_Ionization_Penalty_Charging> (1)
  0.0000

>  <r_epik_Ionization_Penalty_Neutral> (1)
  0.0000

>  <r_epik_State_Penalty> (1)
  0.0000

>  <r_epik_Charging_Adjusted_Penalty> (1)
0

>  <i_epik_Tot_Q> (1)
0

>  <i_epik_Tot_abs_Q> (1)
2

>  <s_lp_Force_Field> (1)
S-OPLS

>  <r_lp_Energy> (1)
13.5883

>  <b_lp_Chiralities_Consistent> (1)
1

$$$$
