11764_1,8-dinitronaphthalene
                    3D
 Schrodinger Suite 2021-3.
 22 23  0  0  1  0            999 V2000
   -2.0393   -1.2033   -0.1683 C   0  0  0  0  0  0
   -2.7105   -0.0078   -0.0865 C   0  0  0  0  0  0
   -2.0095    1.2252    0.0018 C   0  0  0  0  0  0
   -0.5733    1.2353    0.0004 C   0  0  0  0  0  0
    0.0675   -0.0382    0.0325 C   0  0  0  0  0  0
   -0.6324   -1.2169   -0.0857 C   0  0  0  0  0  0
    1.4942   -0.1829    0.3776 N   0  3  1  0  0  0
    2.1187   -1.1014   -0.1421 O   0  0  0  0  0  0
    1.9349    0.5881    1.2299 O   0  5  0  0  0  0
    0.0500    2.5175   -0.0329 C   0  0  0  0  0  0
   -0.6659    3.6863    0.0856 C   0  0  0  0  0  0
   -2.0721    3.6527    0.1700 C   0  0  0  0  0  0
   -2.7271    2.4483    0.0913 C   0  0  0  0  0  0
    1.4741    2.6827   -0.3795 N   0  3  1  0  0  0
    2.0861    3.6096    0.1401 O   0  0  0  0  0  0
    1.9248    1.9188   -1.2329 O   0  5  0  0  0  0
   -2.5809   -2.1393   -0.2509 H   0  0  0  0  0  0
   -3.7962    0.0159   -0.0894 H   0  0  0  0  0  0
   -0.0808   -2.1492   -0.0710 H   0  0  0  0  0  0
   -0.1279    4.6265    0.0698 H   0  0  0  0  0  0
   -2.6264    4.5813    0.2534 H   0  0  0  0  0  0
   -3.8125    2.4102    0.0971 H   0  0  0  0  0  0
  1  6  1  0  0  0
  1  2  2  0  0  0
  1 17  1  0  0  0
  2  3  1  0  0  0
  2 18  1  0  0  0
  3 13  1  0  0  0
  3  4  2  0  0  0
  4  5  1  0  0  0
  4 10  1  0  0  0
  5  6  2  0  0  0
  5  7  1  0  0  0
  6 19  1  0  0  0
  7  8  2  0  0  0
  7  9  1  0  0  0
 10 11  2  0  0  0
 10 14  1  0  0  0
 11 12  1  0  0  0
 11 20  1  0  0  0
 12 13  2  0  0  0
 12 21  1  0  0  0
 13 22  1  0  0  0
 14 15  2  0  0  0
 14 16  1  0  0  0
M  END
>  <i_m_Spin_multiplicity> (1)
1

>  <s_j_Task> (1)
Single Point

>  <s_j_QM_Method> (1)
DFT(b3lyp-d3)

>  <s_j_QM_Basis> (1)
cc-pvtz(-f)

>  <i_j_Number_of_canonical_orbitals> (1)
412

>  <i_j_Geometry_convergence_category> (1)
3

>  <r_j_Gas_Phase_Energy> (1)
-795.14841923979

>  <r_j_Final_Energy> (1)
-795.14841923979

>  <r_j_HOMO> (1)
-0.258581106372741

>  <r_j_LUMO> (1)
-0.105303430132384

>  <r_j_Polarizability> (1)
143.397798689714

>  <r_j_QM_Dipole_(debye)> (1)
8.02993663602224

>  <r_j_QM_Dipole_X_(debye)> (1)
-8.02965191946316

>  <r_j_QM_Dipole_Y_(debye)> (1)
-0.0675849398985086

>  <r_j_QM_Dipole_Z_(debye)> (1)
-0.00216949134934604

>  <r_j_Lowest_Frequency_(cm-1)> (1)
75.0893196469169

>  <r_j_Highest_Frequency_(cm-1)> (1)
3178.33819517507

>  <r_j_2nd_Lowest_Frequency_(cm-1)> (1)
119.386204890762

>  <i_j_Num_Negative_Frequencies> (1)
0

>  <r_j_Zero_Point_Energy_(kcal/mol)> (1)
95.0065216482081

>  <r_j_Entropy_(cal/mol/K)_298.15K_1.00E+00atm> (1)
104.845606692789

>  <r_j_Enthalpy_(kcal/mol)_298.15K_1.00E+00atm> (1)
7.79492284403277

>  <r_j_Free_Energy_(kcal/mol)_298.15K_1.00E+00atm> (1)
-23.4647947914224

>  <r_j_Internal_Energy_(kcal/mol)_298.15K_1.00E+00atm> (1)
7.2024372552055

>  <r_j_Heat_Capacity_(cal/mol/K)_298.15K_1.00E+00atm> (1)
45.6537536039237

>  <r_j_ln(Q)_298.15K_1.00E+00atm> (1)
39.6039924580563

>  <r_j_Total_Internal_Energy_(au)_298.15K_1.00E+00atm> (1)
-794.985538894887

>  <r_j_Total_Enthalpy_(au)_298.15K_1.00E+00atm> (1)
-794.984594708995

>  <r_j_Total_Free_Energy_(au)_298.15K_1.00E+00atm> (1)
-795.034410240281

>  <r_lp_tautomer_probability> (1)
1

>  <r_epik_Ionization_Penalty> (1)
  0.0000

>  <r_epik_Ionization_Penalty_Charging> (1)
  0.0000

>  <r_epik_Ionization_Penalty_Neutral> (1)
  0.0000

>  <r_epik_State_Penalty> (1)
  0.0000

>  <r_epik_Charging_Adjusted_Penalty> (1)
0

>  <i_epik_Tot_Q> (1)
0

>  <i_epik_Tot_abs_Q> (1)
4

>  <s_lp_Force_Field> (1)
S-OPLS

>  <r_lp_Energy> (1)
79.6452

>  <b_lp_Chiralities_Consistent> (1)
1

$$$$
