11818_1,3-dinitronaphthalene
                    3D
 Schrodinger Suite 2021-3.
 22 23  0  0  1  0            999 V2000
   -4.1955    2.4874    0.0000 C   0  0  0  0  0  0
   -4.9257    1.2794    0.0001 C   0  0  0  0  0  0
   -4.2947    0.0532    0.0001 C   0  0  0  0  0  0
   -2.8761   -0.0356    0.0000 C   0  0  0  0  0  0
   -2.1339    1.2026    0.0000 C   0  0  0  0  0  0
   -2.8236    2.4449    0.0000 C   0  0  0  0  0  0
   -0.7209    1.1965    0.0000 C   0  0  0  0  0  0
   -0.0464    0.0015    0.0000 C   0  0  0  0  0  0
   -0.7181   -1.2288    0.0000 C   0  0  0  0  0  0
   -2.0941   -1.2436    0.0000 C   0  0  0  0  0  0
   -2.6948   -2.6021    0.0000 N   0  3  1  0  0  0
   -1.9267   -3.5622    0.0004 O   0  0  0  0  0  0
   -3.9204   -2.7132   -0.0005 O   0  5  0  0  0  0
    1.4265    0.0033    0.0000 N   0  3  1  0  0  0
    1.9952   -1.0865    0.0000 O   0  0  0  0  0  0
    1.9917    1.0962    0.0001 O   0  5  0  0  0  0
   -4.7168    3.4393    0.0000 H   0  0  0  0  0  0
   -6.0110    1.3114    0.0001 H   0  0  0  0  0  0
   -4.8794   -0.8517    0.0001 H   0  0  0  0  0  0
   -2.2387    3.3595   -0.0001 H   0  0  0  0  0  0
   -0.1649    2.1266    0.0000 H   0  0  0  0  0  0
   -0.1588   -2.1534    0.0000 H   0  0  0  0  0  0
  1  6  1  0  0  0
  1  2  2  0  0  0
  1 17  1  0  0  0
  2  3  1  0  0  0
  2 18  1  0  0  0
  3  4  2  0  0  0
  3 19  1  0  0  0
  4 10  1  0  0  0
  4  5  1  0  0  0
  5  6  2  0  0  0
  5  7  1  0  0  0
  6 20  1  0  0  0
  7  8  2  0  0  0
  7 21  1  0  0  0
  8  9  1  0  0  0
  8 14  1  0  0  0
  9 10  2  0  0  0
  9 22  1  0  0  0
 10 11  1  0  0  0
 11 12  2  0  0  0
 11 13  1  0  0  0
 14 15  2  0  0  0
 14 16  1  0  0  0
M  END
>  <i_m_Spin_multiplicity> (1)
1

>  <s_j_Task> (1)
Single Point

>  <s_j_QM_Method> (1)
DFT(b3lyp-d3)

>  <s_j_QM_Basis> (1)
cc-pvtz(-f)

>  <i_j_Number_of_canonical_orbitals> (1)
412

>  <i_j_Geometry_convergence_category> (1)
0

>  <r_j_Gas_Phase_Energy> (1)
-795.158536901669

>  <r_j_Final_Energy> (1)
-795.158536901669

>  <r_j_HOMO> (1)
-0.26741046519704

>  <r_j_LUMO> (1)
-0.129125465010398

>  <r_j_Polarizability> (1)
150.533201683845

>  <r_j_QM_Dipole_(debye)> (1)
5.94312840774023

>  <r_j_QM_Dipole_X_(debye)> (1)
-3.61350304827805

>  <r_j_QM_Dipole_Y_(debye)> (1)
4.71840767495073

>  <r_j_QM_Dipole_Z_(debye)> (1)
-6.27704755768112e-05

>  <r_j_Lowest_Frequency_(cm-1)> (1)
51.0493866941991

>  <r_j_Highest_Frequency_(cm-1)> (1)
3237.82276217489

>  <r_j_2nd_Lowest_Frequency_(cm-1)> (1)
88.6794994724819

>  <i_j_Num_Negative_Frequencies> (1)
0

>  <r_j_Zero_Point_Energy_(kcal/mol)> (1)
95.1079795176481

>  <r_j_Entropy_(cal/mol/K)_298.15K_1.00E+00atm> (1)
106.558787666856

>  <r_j_Enthalpy_(kcal/mol)_298.15K_1.00E+00atm> (1)
7.86239881768952

>  <r_j_Free_Energy_(kcal/mol)_298.15K_1.00E+00atm> (1)
-23.9081037251837

>  <r_j_Internal_Energy_(kcal/mol)_298.15K_1.00E+00atm> (1)
7.26991322886225

>  <r_j_Heat_Capacity_(cal/mol/K)_298.15K_1.00E+00atm> (1)
45.61611726916

>  <r_j_ln(Q)_298.15K_1.00E+00atm> (1)
40.3522113888133

>  <r_j_Total_Internal_Energy_(au)_298.15K_1.00E+00atm> (1)
-794.995387343549

>  <r_j_Total_Enthalpy_(au)_298.15K_1.00E+00atm> (1)
-794.994443157657

>  <r_j_Total_Free_Energy_(au)_298.15K_1.00E+00atm> (1)
-795.045072676512

>  <r_lp_tautomer_probability> (1)
1

>  <r_epik_Ionization_Penalty> (1)
  0.0000

>  <r_epik_Ionization_Penalty_Charging> (1)
  0.0000

>  <r_epik_Ionization_Penalty_Neutral> (1)
  0.0000

>  <r_epik_State_Penalty> (1)
  0.0000

>  <r_epik_Charging_Adjusted_Penalty> (1)
0

>  <i_epik_Tot_Q> (1)
0

>  <i_epik_Tot_abs_Q> (1)
4

>  <s_lp_Force_Field> (1)
S-OPLS

>  <r_lp_Energy> (1)
30.9798

>  <b_lp_Chiralities_Consistent> (1)
1

$$$$
