11831_2-Nitrofluorene
                    3D
 Schrodinger Suite 2021-3.
 25 27  0  0  1  0            999 V2000
   -3.0404    2.3730   -0.0024 C   0  0  0  0  0  0
   -4.3850    1.6758   -0.0013 C   0  0  0  0  0  0
   -5.6641    2.2190    0.0006 C   0  0  0  0  0  0
   -6.7640    1.3551    0.0017 C   0  0  0  0  0  0
   -6.5859   -0.0332    0.0008 C   0  0  0  0  0  0
   -5.3049   -0.5836   -0.0008 C   0  0  0  0  0  0
   -4.2054    0.2780   -0.0016 C   0  0  0  0  0  0
   -2.7700   -0.0092   -0.0020 C   0  0  0  0  0  0
   -2.0654    1.2144   -0.0019 C   0  0  0  0  0  0
   -0.6811    1.2328   -0.0007 C   0  0  0  0  0  0
   -0.0156    0.0025    0.0001 C   0  0  0  0  0  0
   -0.6927   -1.2196   -0.0007 C   0  0  0  0  0  0
   -2.0837   -1.2272   -0.0017 C   0  0  0  0  0  0
    1.4524   -0.0050    0.0021 N   0  3  1  0  0  0
    2.0240   -1.0971    0.0022 O   0  0  0  0  0  0
    2.0313    1.0835    0.0037 O   0  5  0  0  0  0
   -2.9097    3.0156    0.8773 H   0  0  0  0  0  0
   -2.9103    3.0155   -0.8827 H   0  0  0  0  0  0
   -5.8116    3.2954    0.0013 H   0  0  0  0  0  0
   -7.7696    1.7655    0.0033 H   0  0  0  0  0  0
   -7.4538   -0.6859    0.0016 H   0  0  0  0  0  0
   -5.1657   -1.6609   -0.0012 H   0  0  0  0  0  0
   -0.1088    2.1524    0.0000 H   0  0  0  0  0  0
   -0.1198   -2.1382   -0.0003 H   0  0  0  0  0  0
   -2.6226   -2.1693   -0.0021 H   0  0  0  0  0  0
  1  9  1  0  0  0
  1  2  1  0  0  0
  1 17  1  0  0  0
  1 18  1  0  0  0
  2  7  1  0  0  0
  2  3  2  0  0  0
  3  4  1  0  0  0
  3 19  1  0  0  0
  4  5  2  0  0  0
  4 20  1  0  0  0
  5  6  1  0  0  0
  5 21  1  0  0  0
  6  7  2  0  0  0
  6 22  1  0  0  0
  7  8  1  0  0  0
  8 13  1  0  0  0
  8  9  2  0  0  0
  9 10  1  0  0  0
 10 11  2  0  0  0
 10 23  1  0  0  0
 11 12  1  0  0  0
 11 14  1  0  0  0
 12 13  2  0  0  0
 12 24  1  0  0  0
 13 25  1  0  0  0
 14 15  2  0  0  0
 14 16  1  0  0  0
M  END
>  <i_m_Spin_multiplicity> (1)
1

>  <s_j_Task> (1)
Single Point

>  <s_j_QM_Method> (1)
DFT(b3lyp-d3)

>  <s_j_QM_Basis> (1)
cc-pvtz(-f)

>  <i_j_Number_of_canonical_orbitals> (1)
437

>  <i_j_Geometry_convergence_category> (1)
0

>  <r_j_Gas_Phase_Energy> (1)
-706.164157043524

>  <r_j_Final_Energy> (1)
-706.164157043524

>  <r_j_HOMO> (1)
-0.242353619675146

>  <r_j_LUMO> (1)
-0.097138614732352

>  <r_j_Polarizability> (1)
171.857789524916

>  <r_j_QM_Dipole_(debye)> (1)
5.73311830928968

>  <r_j_QM_Dipole_X_(debye)> (1)
-5.67700039319151

>  <r_j_QM_Dipole_Y_(debye)> (1)
0.80018447499278

>  <r_j_QM_Dipole_Z_(debye)> (1)
-0.00410974410329872

>  <r_j_Lowest_Frequency_(cm-1)> (1)
71.3916187851429

>  <r_j_Highest_Frequency_(cm-1)> (1)
3184.26959597186

>  <r_j_2nd_Lowest_Frequency_(cm-1)> (1)
92.1659219187349

>  <i_j_Num_Negative_Frequencies> (1)
0

>  <r_j_Zero_Point_Energy_(kcal/mol)> (1)
118.889903222715

>  <r_j_Entropy_(cal/mol/K)_298.15K_1.00E+00atm> (1)
103.586727991984

>  <r_j_Enthalpy_(kcal/mol)_298.15K_1.00E+00atm> (1)
7.58677042783483

>  <r_j_Free_Energy_(kcal/mol)_298.15K_1.00E+00atm> (1)
-23.2976125229752

>  <r_j_Internal_Energy_(kcal/mol)_298.15K_1.00E+00atm> (1)
6.99428483900755

>  <r_j_Heat_Capacity_(cal/mol/K)_298.15K_1.00E+00atm> (1)
46.11701911715

>  <r_j_ln(Q)_298.15K_1.00E+00atm> (1)
39.3218214287522

>  <r_j_Total_Internal_Energy_(au)_298.15K_1.00E+00atm> (1)
-705.963547819154

>  <r_j_Total_Enthalpy_(au)_298.15K_1.00E+00atm> (1)
-705.962603633261

>  <r_j_Total_Free_Energy_(au)_298.15K_1.00E+00atm> (1)
-706.011821030651

>  <r_lp_tautomer_probability> (1)
1

>  <r_epik_Ionization_Penalty> (1)
  0.0000

>  <r_epik_Ionization_Penalty_Charging> (1)
  0.0000

>  <r_epik_Ionization_Penalty_Neutral> (1)
  0.0000

>  <r_epik_State_Penalty> (1)
  0.0000

>  <r_epik_Charging_Adjusted_Penalty> (1)
0

>  <i_epik_Tot_Q> (1)
0

>  <i_epik_Tot_abs_Q> (1)
2

>  <s_lp_Force_Field> (1)
S-OPLS

>  <r_lp_Energy> (1)
14.012

>  <b_lp_Chiralities_Consistent> (1)
1

$$$$
