11869_N,N-Dimethyl-O-Toluidine
                    3D
 Schrodinger Suite 2021-3.
 23 23  0  0  1  0            999 V2000
    0.1759   -2.4387    0.0002 C   0  0  0  0  0  0
   -0.6108   -1.1478    0.0001 C   0  0  0  0  0  0
   -2.0110   -1.1945    0.0001 C   0  0  0  0  0  0
   -2.7864   -0.0356   -0.0001 C   0  0  0  0  0  0
   -2.1644    1.2107   -0.0001 C   0  0  0  0  0  0
   -0.7717    1.2755    0.0000 C   0  0  0  0  0  0
    0.0159    0.1185    0.0000 C   0  0  0  0  0  0
    1.4403    0.3237    0.0000 N   0  0  0  0  0  0
    2.1524   -0.0167   -1.2204 C   0  0  0  0  0  0
    2.1524   -0.0172    1.2202 C   0  0  0  0  0  0
   -0.4958   -3.3016   -0.0002 H   0  0  0  0  0  0
    0.8209   -2.5224    0.8802 H   0  0  0  0  0  0
    0.8217   -2.5221   -0.8792 H   0  0  0  0  0  0
   -2.5021   -2.1648    0.0001 H   0  0  0  0  0  0
   -3.8702   -0.1101   -0.0001 H   0  0  0  0  0  0
   -2.7540    2.1228   -0.0002 H   0  0  0  0  0  0
   -0.2558    2.2306   -0.0001 H   0  0  0  0  0  0
    1.5631    0.2960   -2.0864 H   0  0  0  0  0  0
    2.3841   -1.0912   -1.3317 H   0  0  0  0  0  0
    3.1066    0.5246   -1.2465 H   0  0  0  0  0  0
    1.5632    0.2952    2.0864 H   0  0  0  0  0  0
    3.1067    0.5240    1.2465 H   0  0  0  0  0  0
    2.3841   -1.0917    1.3311 H   0  0  0  0  0  0
  1  2  1  0  0  0
  1 11  1  0  0  0
  1 12  1  0  0  0
  1 13  1  0  0  0
  2  7  1  0  0  0
  2  3  2  0  0  0
  3  4  1  0  0  0
  3 14  1  0  0  0
  4  5  2  0  0  0
  4 15  1  0  0  0
  5  6  1  0  0  0
  5 16  1  0  0  0
  6  7  2  0  0  0
  6 17  1  0  0  0
  7  8  1  0  0  0
  8  9  1  0  0  0
  8 10  1  0  0  0
  9 18  1  0  0  0
  9 19  1  0  0  0
  9 20  1  0  0  0
 10 21  1  0  0  0
 10 22  1  0  0  0
 10 23  1  0  0  0
M  END
>  <i_m_Spin_multiplicity> (1)
1

>  <s_j_Task> (1)
Single Point

>  <s_j_QM_Method> (1)
DFT(b3lyp-d3)

>  <s_j_QM_Basis> (1)
cc-pvtz(-f)

>  <i_j_Number_of_canonical_orbitals> (1)
341

>  <i_j_Geometry_convergence_category> (1)
0

>  <r_j_Gas_Phase_Energy> (1)
-405.670709211455

>  <r_j_Final_Energy> (1)
-405.670709211455

>  <r_j_HOMO> (1)
-0.213130167503772

>  <r_j_LUMO> (1)
-0.0126128942405727

>  <r_j_Polarizability> (1)
110.980240417642

>  <r_j_QM_Dipole_(debye)> (1)
0.690395169629936

>  <r_j_QM_Dipole_X_(debye)> (1)
0.305762240031873

>  <r_j_QM_Dipole_Y_(debye)> (1)
-0.618995092067713

>  <r_j_QM_Dipole_Z_(debye)> (1)
-0.000137168227901704

>  <r_j_Lowest_Frequency_(cm-1)> (1)
31.2615751217705

>  <r_j_Highest_Frequency_(cm-1)> (1)
3149.55902374767

>  <r_j_2nd_Lowest_Frequency_(cm-1)> (1)
133.647026553903

>  <i_j_Num_Negative_Frequencies> (1)
0

>  <r_j_Zero_Point_Energy_(kcal/mol)> (1)
125.3444892905

>  <r_j_Entropy_(cal/mol/K)_298.15K_1.00E+00atm> (1)
94.2001845764879

>  <r_j_Enthalpy_(kcal/mol)_298.15K_1.00E+00atm> (1)
6.6909163239342

>  <r_j_Free_Energy_(kcal/mol)_298.15K_1.00E+00atm> (1)
-21.3948687075457

>  <r_j_Internal_Energy_(kcal/mol)_298.15K_1.00E+00atm> (1)
6.09843073510693

>  <r_j_Heat_Capacity_(cal/mol/K)_298.15K_1.00E+00atm> (1)
38.0172519797

>  <r_j_ln(Q)_298.15K_1.00E+00atm> (1)
36.110361350549

>  <r_j_Total_Internal_Energy_(au)_298.15K_1.00E+00atm> (1)
-405.461241583778

>  <r_j_Total_Enthalpy_(au)_298.15K_1.00E+00atm> (1)
-405.460297397886

>  <r_j_Total_Free_Energy_(au)_298.15K_1.00E+00atm> (1)
-405.505054945579

>  <r_epik_Ionization_Penalty> (1)
  0.0405

>  <r_epik_Ionization_Penalty_Charging> (1)
  0.0000

>  <r_epik_Ionization_Penalty_Neutral> (1)
  0.0405

>  <r_epik_State_Penalty> (1)
  0.0341

>  <r_epik_Charging_Adjusted_Penalty> (1)
0.0341171

>  <i_epik_Tot_Q> (1)
0

>  <i_epik_Tot_abs_Q> (1)
0

>  <s_lp_Force_Field> (1)
S-OPLS

>  <r_lp_Energy> (1)
32.1316

>  <b_lp_Chiralities_Consistent> (1)
1

$$$$
