11903_1-Methyl-2-ethylbenzene
                    3D
 Schrodinger Suite 2021-3.
 21 21  0  0  1  0            999 V2000
   -0.5566    1.4581   -0.0260 C   0  0  0  0  0  0
   -0.0121    0.0178   -0.0343 C   0  0  0  0  0  0
    1.5022   -0.0234    0.0076 C   0  0  0  0  0  0
    2.2193   -0.0253   -1.1944 C   0  0  0  0  0  0
    3.6132   -0.0147   -1.2136 C   0  0  0  0  0  0
    4.3140   -0.0049   -0.0098 C   0  0  0  0  0  0
    3.6115   -0.0041    1.1946 C   0  0  0  0  0  0
    2.2120   -0.0118    1.2269 C   0  0  0  0  0  0
    1.4918   -0.0208    2.5568 C   0  0  0  0  0  0
   -1.6513    1.4684   -0.0554 H   0  0  0  0  0  0
   -0.1853    2.0137   -0.8932 H   0  0  0  0  0  0
   -0.2358    1.9984    0.8704 H   0  0  0  0  0  0
   -0.4361   -0.5365    0.8100 H   0  0  0  0  0  0
   -0.3617   -0.4899   -0.9407 H   0  0  0  0  0  0
    1.6696   -0.0351   -2.1331 H   0  0  0  0  0  0
    4.1452   -0.0175   -2.1606 H   0  0  0  0  0  0
    5.4002    0.0009   -0.0052 H   0  0  0  0  0  0
    4.1598    0.0008    2.1337 H   0  0  0  0  0  0
    2.1990    0.0556    3.3871 H   0  0  0  0  0  0
    0.9171   -0.9444    2.6969 H   0  0  0  0  0  0
    0.7838    0.8101    2.6455 H   0  0  0  0  0  0
  1  2  1  0  0  0
  1 10  1  0  0  0
  1 11  1  0  0  0
  1 12  1  0  0  0
  2  3  1  0  0  0
  2 13  1  0  0  0
  2 14  1  0  0  0
  3  8  1  0  0  0
  3  4  2  0  0  0
  4  5  1  0  0  0
  4 15  1  0  0  0
  5  6  2  0  0  0
  5 16  1  0  0  0
  6  7  1  0  0  0
  6 17  1  0  0  0
  7  8  2  0  0  0
  7 18  1  0  0  0
  8  9  1  0  0  0
  9 19  1  0  0  0
  9 20  1  0  0  0
  9 21  1  0  0  0
M  END
>  <i_m_Spin_multiplicity> (1)
1

>  <s_j_Task> (1)
Single Point

>  <s_j_QM_Method> (1)
DFT(b3lyp-d3)

>  <s_j_QM_Basis> (1)
cc-pvtz(-f)

>  <i_j_Number_of_canonical_orbitals> (1)
309

>  <i_j_Geometry_convergence_category> (1)
3

>  <r_j_Gas_Phase_Energy> (1)
-350.323720450608

>  <r_j_Final_Energy> (1)
-350.323720450608

>  <r_j_HOMO> (1)
-0.239477745612062

>  <r_j_LUMO> (1)
-0.00903051274972175

>  <r_j_Polarizability> (1)
101.969928853757

>  <r_j_QM_Dipole_(debye)> (1)
0.591976193549979

>  <r_j_QM_Dipole_X_(debye)> (1)
-0.522410202723503

>  <r_j_QM_Dipole_Y_(debye)> (1)
0.0273690672141825

>  <r_j_QM_Dipole_Z_(debye)> (1)
0.277081807378502

>  <r_j_Lowest_Frequency_(cm-1)> (1)
117.17347838511

>  <r_j_Highest_Frequency_(cm-1)> (1)
3143.78664552361

>  <r_j_2nd_Lowest_Frequency_(cm-1)> (1)
139.982102276139

>  <i_j_Num_Negative_Frequencies> (1)
0

>  <r_j_Zero_Point_Energy_(kcal/mol)> (1)
115.462935207991

>  <r_j_Entropy_(cal/mol/K)_298.15K_1.00E+00atm> (1)
88.24805426013

>  <r_j_Enthalpy_(kcal/mol)_298.15K_1.00E+00atm> (1)
5.8489963843122

>  <r_j_Free_Energy_(kcal/mol)_298.15K_1.00E+00atm> (1)
-20.4621609933456

>  <r_j_Internal_Energy_(kcal/mol)_298.15K_1.00E+00atm> (1)
5.25651079548492

>  <r_j_Heat_Capacity_(cal/mol/K)_298.15K_1.00E+00atm> (1)
33.1856071068622

>  <r_j_ln(Q)_298.15K_1.00E+00atm> (1)
34.5361328261958

>  <r_j_Total_Internal_Energy_(au)_298.15K_1.00E+00atm> (1)
-350.13134176666

>  <r_j_Total_Enthalpy_(au)_298.15K_1.00E+00atm> (1)
-350.130397580767

>  <r_j_Total_Free_Energy_(au)_298.15K_1.00E+00atm> (1)
-350.172327079262

>  <r_lp_tautomer_probability> (1)
1

>  <r_epik_Ionization_Penalty> (1)
  0.0000

>  <r_epik_Ionization_Penalty_Charging> (1)
  0.0000

>  <r_epik_Ionization_Penalty_Neutral> (1)
  0.0000

>  <r_epik_State_Penalty> (1)
  0.0000

>  <r_epik_Charging_Adjusted_Penalty> (1)
0

>  <i_epik_Tot_Q> (1)
0

>  <i_epik_Tot_abs_Q> (1)
0

>  <s_lp_Force_Field> (1)
S-OPLS

>  <r_lp_Energy> (1)
9.28461

>  <b_lp_Chiralities_Consistent> (1)
1

$$$$
