119205_Matairesinol
                    3D
 Schrodinger Suite 2021-3.
 48 50  0  0  1  0            999 V2000
   -0.8731    3.8934    2.4606 C   0  0  0  0  0  0
   -1.7542    3.5861    1.3930 O   0  0  0  0  0  0
   -1.6117    2.3807    0.7734 C   0  0  0  0  0  0
   -2.4907    2.1441   -0.3084 C   0  0  0  0  0  0
   -2.4143    0.9362   -0.9920 C   0  0  0  0  0  0
   -1.4779   -0.0399   -0.6319 C   0  0  0  0  0  0
   -0.6016    0.1811    0.4285 C   0  0  0  0  0  0
   -0.6887    1.3984    1.1284 C   0  0  0  0  0  0
    0.4574   -0.8404    0.7895 C   0  0  0  0  0  0
    1.8703   -0.4405    0.3155 C   0  0  0  0  0  0
    2.5029    0.6947    1.1454 C   0  0  0  0  0  0
    3.9306    0.5057    1.0809 O   0  0  0  0  0  0
    4.2247   -0.7749    0.7220 C   0  0  0  0  0  0
    5.3563   -1.1806    0.6471 O   0  0  0  0  0  0
    2.9396   -1.5429    0.4167 C   0  0  0  0  0  0
    3.1335   -2.4388   -0.8286 C   0  0  0  0  0  0
    1.8510   -3.1127   -1.2543 C   0  0  0  0  0  0
    1.0262   -2.4986   -2.2112 C   0  0  0  0  0  0
   -0.2401   -2.9974   -2.5093 C   0  0  0  0  0  0
   -0.6948   -4.1645   -1.8554 C   0  0  0  0  0  0
    0.1344   -4.7906   -0.9296 C   0  0  0  0  0  0
    1.3960   -4.2693   -0.6256 C   0  0  0  0  0  0
   -1.9442   -4.6116   -2.1768 O   0  0  0  0  0  0
   -1.1232   -2.4261   -3.3782 O   0  0  0  0  0  0
   -0.7072   -1.2618   -4.0790 C   0  0  0  0  0  0
   -3.3801    3.1342   -0.6156 O   0  0  0  0  0  0
   -1.1385    4.8992    2.7897 H   0  0  0  0  0  0
    0.1769    3.8851    2.1366 H   0  0  0  0  0  0
   -0.9915    3.1964    3.3014 H   0  0  0  0  0  0
   -3.1004    0.7506   -1.8160 H   0  0  0  0  0  0
   -1.4513   -0.9768   -1.1787 H   0  0  0  0  0  0
   -0.0298    1.5680    1.9717 H   0  0  0  0  0  0
    0.4886   -0.9956    1.8771 H   0  0  0  0  0  0
    0.1963   -1.8033    0.3458 H   0  0  0  0  0  0
    1.8072   -0.1136   -0.7297 H   0  0  0  0  0  0
    2.2769    1.6941    0.7693 H   0  0  0  0  0  0
    2.1981    0.6381    2.1988 H   0  0  0  0  0  0
    2.7273   -2.1824    1.2853 H   0  0  0  0  0  0
    3.5201   -1.8174   -1.6446 H   0  0  0  0  0  0
    3.9155   -3.1691   -0.5990 H   0  0  0  0  0  0
    1.3761   -1.5972   -2.7001 H   0  0  0  0  0  0
   -0.2158   -5.6945   -0.4354 H   0  0  0  0  0  0
    2.0152   -4.7633    0.1180 H   0  0  0  0  0  0
   -2.1296   -5.4073   -1.6614 H   0  0  0  0  0  0
   -1.5408   -0.9924   -4.7294 H   0  0  0  0  0  0
    0.1819   -1.4557   -4.6931 H   0  0  0  0  0  0
   -0.5006   -0.4303   -3.3926 H   0  0  0  0  0  0
   -3.9270    2.8372   -1.3544 H   0  0  0  0  0  0
  1  2  1  0  0  0
  1 27  1  0  0  0
  1 28  1  0  0  0
  1 29  1  0  0  0
  2  3  1  0  0  0
  3  8  1  0  0  0
  3  4  2  0  0  0
  4  5  1  0  0  0
  4 26  1  0  0  0
  5  6  2  0  0  0
  5 30  1  0  0  0
  6  7  1  0  0  0
  6 31  1  0  0  0
  7  8  2  0  0  0
  7  9  1  0  0  0
  8 32  1  0  0  0
  9 10  1  0  0  0
  9 33  1  0  0  0
  9 34  1  0  0  0
 10 15  1  0  0  0
 10 11  1  0  0  0
 10 35  1  0  0  0
 11 12  1  0  0  0
 11 36  1  0  0  0
 11 37  1  0  0  0
 12 13  1  0  0  0
 13 14  2  0  0  0
 13 15  1  0  0  0
 15 16  1  0  0  0
 15 38  1  0  0  0
 16 17  1  0  0  0
 16 39  1  0  0  0
 16 40  1  0  0  0
 17 22  1  0  0  0
 17 18  2  0  0  0
 18 19  1  0  0  0
 18 41  1  0  0  0
 19 20  2  0  0  0
 19 24  1  0  0  0
 20 21  1  0  0  0
 20 23  1  0  0  0
 21 22  2  0  0  0
 21 42  1  0  0  0
 22 43  1  0  0  0
 23 44  1  0  0  0
 24 25  1  0  0  0
 25 45  1  0  0  0
 25 46  1  0  0  0
 25 47  1  0  0  0
 26 48  1  0  0  0
M  END
>  <i_m_Spin_multiplicity> (1)
1

>  <s_j_Task> (1)
Single Point

>  <s_j_QM_Method> (1)
DFT(b3lyp-d3)

>  <s_j_QM_Basis> (1)
cc-pvtz(-f)

>  <i_j_Number_of_canonical_orbitals> (1)
781

>  <i_j_Geometry_convergence_category> (1)
3

>  <r_j_Gas_Phase_Energy> (1)
-1227.15702187661

>  <r_j_Final_Energy> (1)
-1227.15702187661

>  <r_j_HOMO> (1)
-0.209469485832891

>  <r_j_LUMO> (1)
-0.0255399007398378

>  <r_j_Polarizability> (1)
247.326627497031

>  <r_j_QM_Dipole_(debye)> (1)
3.99108264965583

>  <r_j_QM_Dipole_X_(debye)> (1)
-3.93700436759684

>  <r_j_QM_Dipole_Y_(debye)> (1)
-0.625167880244155

>  <r_j_QM_Dipole_Z_(debye)> (1)
-0.19468550900941

>  <r_j_Lowest_Frequency_(cm-1)> (1)
35.415645892693

>  <r_j_Highest_Frequency_(cm-1)> (1)
3772.50378432576

>  <r_j_2nd_Lowest_Frequency_(cm-1)> (1)
44.5169307649125

>  <i_j_Num_Negative_Frequencies> (1)
0

>  <r_j_Zero_Point_Energy_(kcal/mol)> (1)
245.294133899437

>  <r_j_Entropy_(cal/mol/K)_298.15K_1.00E+00atm> (1)
153.752775851611

>  <r_j_Enthalpy_(kcal/mol)_298.15K_1.00E+00atm> (1)
14.8912062681849

>  <r_j_Free_Energy_(kcal/mol)_298.15K_1.00E+00atm> (1)
-30.950183851973

>  <r_j_Internal_Energy_(kcal/mol)_298.15K_1.00E+00atm> (1)
14.2987206793577

>  <r_j_Heat_Capacity_(cal/mol/K)_298.15K_1.00E+00atm> (1)
91.8502357256231

>  <r_j_ln(Q)_298.15K_1.00E+00atm> (1)
52.2378677821239

>  <r_j_Total_Internal_Energy_(au)_298.15K_1.00E+00atm> (1)
-1226.74333432767

>  <r_j_Total_Enthalpy_(au)_298.15K_1.00E+00atm> (1)
-1226.74239014178

>  <r_j_Total_Free_Energy_(au)_298.15K_1.00E+00atm> (1)
-1226.81544304745

>  <r_lp_tautomer_probability> (1)
1

>  <r_epik_Ionization_Penalty> (1)
  0.0016

>  <r_epik_Ionization_Penalty_Charging> (1)
  0.0000

>  <r_epik_Ionization_Penalty_Neutral> (1)
  0.0016

>  <r_epik_State_Penalty> (1)
  0.0000

>  <r_epik_Charging_Adjusted_Penalty> (1)
0

>  <i_epik_Tot_Q> (1)
0

>  <i_epik_Tot_abs_Q> (1)
0

>  <s_lp_Force_Field> (1)
S-OPLS

>  <r_lp_Energy> (1)
19.9335

>  <b_lp_Chiralities_Consistent> (1)
1

>  <s_epik_Chemistry_Notes> (1)
This compound has an ester and may undergo hydrolysis at high or low pH.

$$$$
