119216_Sinapinaldehyde
                    3D
 Schrodinger Suite 2021-3.
 27 27  0  0  1  0            999 V2000
   -0.8435    0.9967   -0.0001 C   0  0  0  0  0  0
    0.0032   -0.1458    0.0000 O   0  0  0  0  0  0
    1.3618    0.0517    0.0000 C   0  0  0  0  0  0
    2.0043    1.2816    0.0000 C   0  0  0  0  0  0
    3.4112    1.3278    0.0000 C   0  0  0  0  0  0
    4.1388    0.1229    0.0000 C   0  0  0  0  0  0
    3.4923   -1.1138    0.0000 C   0  0  0  0  0  0
    2.0883   -1.1545    0.0000 C   0  0  0  0  0  0
    1.4522   -2.3502    0.0001 O   0  0  0  0  0  0
    4.1087   -2.3273    0.0000 O   0  0  0  0  0  0
    5.5279   -2.3532   -0.0001 C   0  0  0  0  0  0
    4.1505    2.5817    0.0000 C   0  0  0  0  0  0
    3.6673    3.8441    0.0000 C   0  0  0  0  0  0
    4.5695    4.9934    0.0000 C   0  0  0  0  0  0
    4.2068    6.1585    0.0000 O   0  0  0  0  0  0
   -1.8655    0.6160   -0.0001 H   0  0  0  0  0  0
   -0.6834    1.6110   -0.8948 H   0  0  0  0  0  0
   -0.6834    1.6112    0.8946 H   0  0  0  0  0  0
    1.4302    2.1987    0.0000 H   0  0  0  0  0  0
    5.2211    0.1673   -0.0001 H   0  0  0  0  0  0
    0.5004   -2.1614    0.0001 H   0  0  0  0  0  0
    5.8073   -3.4076   -0.0001 H   0  0  0  0  0  0
    5.9431   -1.8697    0.8944 H   0  0  0  0  0  0
    5.9431   -1.8698   -0.8945 H   0  0  0  0  0  0
    5.2365    2.4728    0.0000 H   0  0  0  0  0  0
    2.6047    4.0713    0.0000 H   0  0  0  0  0  0
    5.6545    4.7324    0.0001 H   0  0  0  0  0  0
  1  2  1  0  0  0
  1 16  1  0  0  0
  1 17  1  0  0  0
  1 18  1  0  0  0
  2  3  1  0  0  0
  3  8  1  0  0  0
  3  4  2  0  0  0
  4  5  1  0  0  0
  4 19  1  0  0  0
  5  6  2  0  0  0
  5 12  1  0  0  0
  6  7  1  0  0  0
  6 20  1  0  0  0
  7  8  2  0  0  0
  7 10  1  0  0  0
  8  9  1  0  0  0
  9 21  1  0  0  0
 10 11  1  0  0  0
 11 22  1  0  0  0
 11 23  1  0  0  0
 11 24  1  0  0  0
 12 13  2  0  0  0
 12 25  1  0  0  0
 13 14  1  0  0  0
 13 26  1  0  0  0
 14 15  2  0  0  0
 14 27  1  0  0  0
M  END
>  <i_m_Spin_multiplicity> (1)
1

>  <s_j_Task> (1)
Single Point

>  <s_j_QM_Method> (1)
DFT(b3lyp-d3)

>  <s_j_QM_Basis> (1)
cc-pvtz(-f)

>  <i_j_Number_of_canonical_orbitals> (1)
445

>  <i_j_Geometry_convergence_category> (1)
3

>  <r_j_Gas_Phase_Energy> (1)
-727.508439314705

>  <r_j_Final_Energy> (1)
-727.508439314705

>  <r_j_HOMO> (1)
-0.211481162037782

>  <r_j_LUMO> (1)
-0.0668116292976394

>  <r_j_Polarizability> (1)
168.054071212758

>  <r_j_QM_Dipole_(debye)> (1)
3.94064684834986

>  <r_j_QM_Dipole_X_(debye)> (1)
-1.20999580853545

>  <r_j_QM_Dipole_Y_(debye)> (1)
-3.75028099447384

>  <r_j_QM_Dipole_Z_(debye)> (1)
-0.000434999547442249

>  <r_j_Lowest_Frequency_(cm-1)> (1)
72.2223875971174

>  <r_j_Highest_Frequency_(cm-1)> (1)
3708.82063411972

>  <r_j_2nd_Lowest_Frequency_(cm-1)> (1)
75.088043136662

>  <i_j_Num_Negative_Frequencies> (1)
0

>  <r_j_Zero_Point_Energy_(kcal/mol)> (1)
133.20348638545

>  <r_j_Entropy_(cal/mol/K)_298.15K_1.00E+00atm> (1)
116.895303882754

>  <r_j_Enthalpy_(kcal/mol)_298.15K_1.00E+00atm> (1)
9.49739216765216

>  <r_j_Free_Energy_(kcal/mol)_298.15K_1.00E+00atm> (1)
-25.354942684991

>  <r_j_Internal_Energy_(kcal/mol)_298.15K_1.00E+00atm> (1)
8.90490657882489

>  <r_j_Heat_Capacity_(cal/mol/K)_298.15K_1.00E+00atm> (1)
53.952368953744

>  <r_j_ln(Q)_298.15K_1.00E+00atm> (1)
42.7941930793234

>  <r_j_Total_Internal_Energy_(au)_298.15K_1.00E+00atm> (1)
-727.28197517391

>  <r_j_Total_Enthalpy_(au)_298.15K_1.00E+00atm> (1)
-727.281030988018

>  <r_j_Total_Free_Energy_(au)_298.15K_1.00E+00atm> (1)
-727.336571719304

>  <r_epik_Ionization_Penalty> (1)
  0.0992

>  <r_epik_Ionization_Penalty_Charging> (1)
  0.0000

>  <r_epik_Ionization_Penalty_Neutral> (1)
  0.0992

>  <r_epik_State_Penalty> (1)
  0.0892

>  <r_epik_Charging_Adjusted_Penalty> (1)
0.0892403964798715

>  <i_epik_Tot_Q> (1)
0

>  <i_epik_Tot_abs_Q> (1)
0

>  <s_lp_Force_Field> (1)
S-OPLS

>  <r_lp_Energy> (1)
18.669602

>  <b_lp_Chiralities_Consistent> (1)
1

$$$$
