11936_2-methylanthracene
                    3D
 Schrodinger Suite 2021-3.
 27 29  0  0  1  0            999 V2000
   -0.0130    0.0055    0.0005 C   0  0  0  0  0  0
    1.4947    0.0327    0.0001 C   0  0  0  0  0  0
    2.2002    1.2087   -0.0003 C   0  0  0  0  0  0
    3.6292    1.2328   -0.0005 C   0  0  0  0  0  0
    4.3539    2.4299   -0.0005 C   0  0  0  0  0  0
    5.7541    2.4438   -0.0003 C   0  0  0  0  0  0
    6.5048    3.6601    0.0001 C   0  0  0  0  0  0
    7.8739    3.6433    0.0006 C   0  0  0  0  0  0
    8.5803    2.4055    0.0005 C   0  0  0  0  0  0
    7.8979    1.2183    0.0001 C   0  0  0  0  0  0
    6.4691    1.1904   -0.0003 C   0  0  0  0  0  0
    5.7432   -0.0076   -0.0004 C   0  0  0  0  0  0
    4.3444   -0.0196   -0.0003 C   0  0  0  0  0  0
    3.5846   -1.2304    0.0000 C   0  0  0  0  0  0
    2.2180   -1.2043    0.0003 C   0  0  0  0  0  0
   -0.4345    1.0144    0.0004 H   0  0  0  0  0  0
   -0.3977   -0.5220    0.8817 H   0  0  0  0  0  0
   -0.3982   -0.5224   -0.8802 H   0  0  0  0  0  0
    1.6712    2.1589   -0.0003 H   0  0  0  0  0  0
    3.8158    3.3750   -0.0005 H   0  0  0  0  0  0
    5.9642    4.6033    0.0002 H   0  0  0  0  0  0
    8.4308    4.5759    0.0009 H   0  0  0  0  0  0
    9.6664    2.4104    0.0009 H   0  0  0  0  0  0
    8.4348    0.2734    0.0001 H   0  0  0  0  0  0
    6.2816   -0.9525   -0.0003 H   0  0  0  0  0  0
    4.1171   -2.1780    0.0001 H   0  0  0  0  0  0
    1.6581   -2.1363    0.0006 H   0  0  0  0  0  0
  1  2  1  0  0  0
  1 16  1  0  0  0
  1 17  1  0  0  0
  1 18  1  0  0  0
  2 15  1  0  0  0
  2  3  2  0  0  0
  3  4  1  0  0  0
  3 19  1  0  0  0
  4 13  1  0  0  0
  4  5  2  0  0  0
  5  6  1  0  0  0
  5 20  1  0  0  0
  6 11  1  0  0  0
  6  7  2  0  0  0
  7  8  1  0  0  0
  7 21  1  0  0  0
  8  9  2  0  0  0
  8 22  1  0  0  0
  9 10  1  0  0  0
  9 23  1  0  0  0
 10 11  2  0  0  0
 10 24  1  0  0  0
 11 12  1  0  0  0
 12 13  2  0  0  0
 12 25  1  0  0  0
 13 14  1  0  0  0
 14 15  2  0  0  0
 14 26  1  0  0  0
 15 27  1  0  0  0
M  END
>  <i_m_Spin_multiplicity> (1)
1

>  <s_j_Task> (1)
Single Point

>  <s_j_QM_Method> (1)
DFT(b3lyp-d3)

>  <s_j_QM_Basis> (1)
cc-pvtz(-f)

>  <i_j_Number_of_canonical_orbitals> (1)
439

>  <i_j_Geometry_convergence_category> (1)
0

>  <r_j_Gas_Phase_Energy> (1)
-579.041139113727

>  <r_j_Final_Energy> (1)
-579.041139113727

>  <r_j_HOMO> (1)
-0.192600986379524

>  <r_j_LUMO> (1)
-0.0618922186168842

>  <r_j_Polarizability> (1)
189.238686123173

>  <r_j_QM_Dipole_(debye)> (1)
0.573045695860548

>  <r_j_QM_Dipole_X_(debye)> (1)
-0.535774980431536

>  <r_j_QM_Dipole_Y_(debye)> (1)
-0.203287246725847

>  <r_j_QM_Dipole_Z_(debye)> (1)
0.00091389633478675

>  <r_j_Lowest_Frequency_(cm-1)> (1)
88.8151967994276

>  <r_j_Highest_Frequency_(cm-1)> (1)
3146.02590394115

>  <r_j_2nd_Lowest_Frequency_(cm-1)> (1)
130.251526485755

>  <i_j_Num_Negative_Frequencies> (1)
0

>  <r_j_Zero_Point_Energy_(kcal/mol)> (1)
138.371219251947

>  <r_j_Entropy_(cal/mol/K)_298.15K_1.00E+00atm> (1)
100.58876657175

>  <r_j_Enthalpy_(kcal/mol)_298.15K_1.00E+00atm> (1)
7.36950152170432

>  <r_j_Free_Energy_(kcal/mol)_298.15K_1.00E+00atm> (1)
-22.6210392316629

>  <r_j_Internal_Energy_(kcal/mol)_298.15K_1.00E+00atm> (1)
6.77701593287705

>  <r_j_Heat_Capacity_(cal/mol/K)_298.15K_1.00E+00atm> (1)
46.1288230507353

>  <r_j_ln(Q)_298.15K_1.00E+00atm> (1)
38.1798978038224

>  <r_j_Total_Internal_Energy_(au)_298.15K_1.00E+00atm> (1)
-578.809830675968

>  <r_j_Total_Enthalpy_(au)_298.15K_1.00E+00atm> (1)
-578.808886490076

>  <r_j_Total_Free_Energy_(au)_298.15K_1.00E+00atm> (1)
-578.856679459245

>  <r_lp_tautomer_probability> (1)
1

>  <r_epik_Ionization_Penalty> (1)
  0.0000

>  <r_epik_Ionization_Penalty_Charging> (1)
  0.0000

>  <r_epik_Ionization_Penalty_Neutral> (1)
  0.0000

>  <r_epik_State_Penalty> (1)
  0.0000

>  <r_epik_Charging_Adjusted_Penalty> (1)
0

>  <i_epik_Tot_Q> (1)
0

>  <i_epik_Tot_abs_Q> (1)
0

>  <s_lp_Force_Field> (1)
S-OPLS

>  <r_lp_Energy> (1)
24.858

>  <b_lp_Chiralities_Consistent> (1)
1

$$$$
