11934_2-phenylnaphthalene
                    3D
 Schrodinger Suite 2021-3.
 28 30  0  0  1  0            999 V2000
   -2.8082   -0.0078    0.0057 C   0  0  0  0  0  0
   -2.0966   -1.2028    0.1192 C   0  0  0  0  0  0
   -0.7033   -1.1932    0.1158 C   0  0  0  0  0  0
    0.0096    0.0114   -0.0012 C   0  0  0  0  0  0
   -0.7202    1.2057   -0.1179 C   0  0  0  0  0  0
   -2.1134    1.1968   -0.1122 C   0  0  0  0  0  0
    1.4929    0.0222   -0.0019 C   0  0  0  0  0  0
    2.2028    1.0233    0.6376 C   0  0  0  0  0  0
    3.6201    1.0487    0.6398 C   0  0  0  0  0  0
    4.3578    2.0706    1.2958 C   0  0  0  0  0  0
    5.7336    2.0661    1.2797 C   0  0  0  0  0  0
    6.4395    1.0378    0.6082 C   0  0  0  0  0  0
    5.7543    0.0318   -0.0338 C   0  0  0  0  0  0
    4.3353    0.0075   -0.0347 C   0  0  0  0  0  0
    3.5917   -1.0135   -0.6834 C   0  0  0  0  0  0
    2.2190   -1.0077   -0.6680 C   0  0  0  0  0  0
   -3.8942   -0.0153    0.0072 H   0  0  0  0  0  0
   -2.6276   -2.1452    0.2187 H   0  0  0  0  0  0
   -0.1601   -2.1266    0.2299 H   0  0  0  0  0  0
   -0.1879    2.1443   -0.2401 H   0  0  0  0  0  0
   -2.6576    2.1317   -0.2117 H   0  0  0  0  0  0
    1.6708    1.8031    1.1760 H   0  0  0  0  0  0
    3.8146    2.8588    1.8108 H   0  0  0  0  0  0
    6.2862    2.8538    1.7833 H   0  0  0  0  0  0
    7.5254    1.0473    0.6033 H   0  0  0  0  0  0
    6.2909   -0.7603   -0.5500 H   0  0  0  0  0  0
    4.1292   -1.8007   -1.2060 H   0  0  0  0  0  0
    1.6700   -1.7829   -1.1932 H   0  0  0  0  0  0
  1  6  1  0  0  0
  1  2  2  0  0  0
  1 17  1  0  0  0
  2  3  1  0  0  0
  2 18  1  0  0  0
  3  4  2  0  0  0
  3 19  1  0  0  0
  4  5  1  0  0  0
  4  7  1  0  0  0
  5  6  2  0  0  0
  5 20  1  0  0  0
  6 21  1  0  0  0
  7 16  1  0  0  0
  7  8  2  0  0  0
  8  9  1  0  0  0
  8 22  1  0  0  0
  9 14  1  0  0  0
  9 10  2  0  0  0
 10 11  1  0  0  0
 10 23  1  0  0  0
 11 12  2  0  0  0
 11 24  1  0  0  0
 12 13  1  0  0  0
 12 25  1  0  0  0
 13 14  2  0  0  0
 13 26  1  0  0  0
 14 15  1  0  0  0
 15 16  2  0  0  0
 15 27  1  0  0  0
 16 28  1  0  0  0
M  END
>  <i_m_Spin_multiplicity> (1)
1

>  <s_j_Task> (1)
Single Point

>  <s_j_QM_Method> (1)
DFT(b3lyp-d3)

>  <s_j_QM_Basis> (1)
cc-pvtz(-f)

>  <i_j_Number_of_canonical_orbitals> (1)
463

>  <i_j_Geometry_convergence_category> (1)
0

>  <r_j_Gas_Phase_Energy> (1)
-617.155650749173

>  <r_j_Final_Energy> (1)
-617.155650749173

>  <r_j_HOMO> (1)
-0.217533618173287

>  <r_j_LUMO> (1)
-0.0533893286921402

>  <r_j_Polarizability> (1)
192.143421793525

>  <r_j_QM_Dipole_(debye)> (1)
0.0244420689485581

>  <r_j_QM_Dipole_X_(debye)> (1)
-0.0184776242951784

>  <r_j_QM_Dipole_Y_(debye)> (1)
-0.00748020132903059

>  <r_j_QM_Dipole_Z_(debye)> (1)
-0.0141435046211846

>  <r_j_Lowest_Frequency_(cm-1)> (1)
79.4271549878268

>  <r_j_Highest_Frequency_(cm-1)> (1)
3149.61232147274

>  <r_j_2nd_Lowest_Frequency_(cm-1)> (1)
92.0759053342225

>  <i_j_Num_Negative_Frequencies> (1)
0

>  <r_j_Zero_Point_Energy_(kcal/mol)> (1)
142.631937660187

>  <r_j_Entropy_(cal/mol/K)_298.15K_1.00E+00atm> (1)
103.370193428757

>  <r_j_Enthalpy_(kcal/mol)_298.15K_1.00E+00atm> (1)
7.57400394363683

>  <r_j_Free_Energy_(kcal/mol)_298.15K_1.00E+00atm> (1)
-23.2458192271471

>  <r_j_Internal_Energy_(kcal/mol)_298.15K_1.00E+00atm> (1)
6.98151835480956

>  <r_j_Heat_Capacity_(cal/mol/K)_298.15K_1.00E+00atm> (1)
47.483011900383

>  <r_j_ln(Q)_298.15K_1.00E+00atm> (1)
39.23440445726

>  <r_j_Total_Internal_Energy_(au)_298.15K_1.00E+00atm> (1)
-616.917226529033

>  <r_j_Total_Enthalpy_(au)_298.15K_1.00E+00atm> (1)
-616.916282343141

>  <r_j_Total_Free_Energy_(au)_298.15K_1.00E+00atm> (1)
-616.965396857971

>  <r_lp_tautomer_probability> (1)
1

>  <r_epik_Ionization_Penalty> (1)
  0.0000

>  <r_epik_Ionization_Penalty_Charging> (1)
  0.0000

>  <r_epik_Ionization_Penalty_Neutral> (1)
  0.0000

>  <r_epik_State_Penalty> (1)
  0.0000

>  <r_epik_Charging_Adjusted_Penalty> (1)
0

>  <i_epik_Tot_Q> (1)
0

>  <i_epik_Tot_abs_Q> (1)
0

>  <s_lp_Force_Field> (1)
S-OPLS

>  <r_lp_Energy> (1)
30.1967

>  <b_lp_Chiralities_Consistent> (1)
1

$$$$
