12025_2- Pyrrolidone
                    3D
 Schrodinger Suite 2021-3.
 13 13  0  0  1  0            999 V2000
    2.3903   -1.1365    1.3386 C   0  0  0  0  0  0
    2.4568   -0.0218    2.3959 C   0  0  0  0  0  0
    1.6957   -0.5933    3.5982 C   0  0  0  0  0  0
    1.6705   -0.1587    4.7358 O   0  0  0  0  0  0
    1.0167   -1.6956    3.1417 N   0  0  0  0  0  0
    1.1038   -1.9129    1.7051 C   0  0  0  0  0  0
    3.2545   -1.8001    1.4430 H   0  0  0  0  0  0
    2.3701   -0.7695    0.3099 H   0  0  0  0  0  0
    3.4672    0.2715    2.6869 H   0  0  0  0  0  0
    1.9301    0.8847    2.0732 H   0  0  0  0  0  0
    0.3278   -2.1368    3.7332 H   0  0  0  0  0  0
    0.2265   -1.5052    1.1805 H   0  0  0  0  0  0
    1.1734   -2.9786    1.4650 H   0  0  0  0  0  0
  1  6  1  0  0  0
  1  2  1  0  0  0
  1  7  1  0  0  0
  1  8  1  0  0  0
  2  3  1  0  0  0
  2  9  1  0  0  0
  2 10  1  0  0  0
  3  4  2  0  0  0
  3  5  1  0  0  0
  5  6  1  0  0  0
  5 11  1  0  0  0
  6 12  1  0  0  0
  6 13  1  0  0  0
M  END
>  <i_m_Spin_multiplicity> (1)
1

>  <s_j_Task> (1)
Single Point

>  <s_j_QM_Method> (1)
DFT(b3lyp-d3)

>  <s_j_QM_Basis> (1)
cc-pvtz(-f)

>  <i_j_Number_of_canonical_orbitals> (1)
200

>  <i_j_Geometry_convergence_category> (1)
0

>  <r_j_Gas_Phase_Energy> (1)
-286.738763116798

>  <r_j_Final_Energy> (1)
-286.738763116798

>  <r_j_HOMO> (1)
-0.272016156383983

>  <r_j_LUMO> (1)
-0.000320776476998548

>  <r_j_Polarizability> (1)
54.2385938458092

>  <r_j_QM_Dipole_(debye)> (1)
4.07807299772619

>  <r_j_QM_Dipole_X_(debye)> (1)
-0.564209419459644

>  <r_j_QM_Dipole_Y_(debye)> (1)
-1.76579828138217

>  <r_j_QM_Dipole_Z_(debye)> (1)
-3.63239639015957

>  <r_j_Lowest_Frequency_(cm-1)> (1)
169.362227691507

>  <r_j_Highest_Frequency_(cm-1)> (1)
3585.96578747656

>  <r_j_2nd_Lowest_Frequency_(cm-1)> (1)
231.061338445688

>  <i_j_Num_Negative_Frequencies> (1)
0

>  <r_j_Zero_Point_Energy_(kcal/mol)> (1)
69.2559119710179

>  <r_j_Entropy_(cal/mol/K)_298.15K_1.00E+00atm> (1)
73.2621157962733

>  <r_j_Enthalpy_(kcal/mol)_298.15K_1.00E+00atm> (1)
3.90119435743682

>  <r_j_Free_Energy_(kcal/mol)_298.15K_1.00E+00atm> (1)
-17.9419054672221

>  <r_j_Internal_Energy_(kcal/mol)_298.15K_1.00E+00atm> (1)
3.30870876860954

>  <r_j_Heat_Capacity_(cal/mol/K)_298.15K_1.00E+00atm> (1)
19.5495657170477

>  <r_j_ln(Q)_298.15K_1.00E+00atm> (1)
30.2824335402571

>  <r_j_Total_Internal_Energy_(au)_298.15K_1.00E+00atm> (1)
-286.623124032117

>  <r_j_Total_Enthalpy_(au)_298.15K_1.00E+00atm> (1)
-286.622179846225

>  <r_j_Total_Free_Energy_(au)_298.15K_1.00E+00atm> (1)
-286.656989041733

>  <r_lp_tautomer_probability> (1)
1

>  <r_epik_Ionization_Penalty> (1)
  0.0000

>  <r_epik_Ionization_Penalty_Charging> (1)
  0.0000

>  <r_epik_Ionization_Penalty_Neutral> (1)
  0.0000

>  <r_epik_State_Penalty> (1)
  0.0000

>  <r_epik_Charging_Adjusted_Penalty> (1)
0

>  <i_epik_Tot_Q> (1)
0

>  <i_epik_Tot_abs_Q> (1)
0

>  <s_lp_Force_Field> (1)
S-OPLS

>  <r_lp_Energy> (1)
-1.061677

>  <b_lp_Chiralities_Consistent> (1)
1

$$$$
