12048_3-ethylpentane
                    3D
 Schrodinger Suite 2021-3.
 23 22  0  0  1  0            999 V2000
   -0.5882    1.5077    0.1314 C   0  0  0  0  0  0
   -0.0803    0.0883   -0.1464 C   0  0  0  0  0  0
    1.4556   -0.0626   -0.1084 C   0  0  0  0  0  0
    2.1107    0.6040   -1.3372 C   0  0  0  0  0  0
    3.6187    0.8447   -1.2035 C   0  0  0  0  0  0
    1.8659   -1.5467    0.0045 C   0  0  0  0  0  0
    1.5922   -2.1815    1.3728 C   0  0  0  0  0  0
   -1.6823    1.5468    0.1072 H   0  0  0  0  0  0
   -0.2195    2.2303   -0.6036 H   0  0  0  0  0  0
   -0.2647    1.8502    1.1211 H   0  0  0  0  0  0
   -0.5318   -0.5878    0.5888 H   0  0  0  0  0  0
   -0.4408   -0.2511   -1.1281 H   0  0  0  0  0  0
    1.8227    0.4573    0.7919 H   0  0  0  0  0  0
    1.9095   -0.0181   -2.2212 H   0  0  0  0  0  0
    1.6254    1.5674   -1.5317 H   0  0  0  0  0  0
    4.0204    1.3350   -2.0965 H   0  0  0  0  0  0
    4.1759   -0.0873   -1.0645 H   0  0  0  0  0  0
    3.8353    1.4894   -0.3439 H   0  0  0  0  0  0
    1.3451   -2.1139   -0.7803 H   0  0  0  0  0  0
    2.9356   -1.6475   -0.2127 H   0  0  0  0  0  0
    1.9188   -3.2265    1.3949 H   0  0  0  0  0  0
    0.5284   -2.1665    1.6307 H   0  0  0  0  0  0
    2.1306   -1.6477    2.1643 H   0  0  0  0  0  0
  1  2  1  0  0  0
  1  8  1  0  0  0
  1  9  1  0  0  0
  1 10  1  0  0  0
  2  3  1  0  0  0
  2 11  1  0  0  0
  2 12  1  0  0  0
  3  4  1  0  0  0
  3  6  1  0  0  0
  3 13  1  0  0  0
  4  5  1  0  0  0
  4 14  1  0  0  0
  4 15  1  0  0  0
  5 16  1  0  0  0
  5 17  1  0  0  0
  5 18  1  0  0  0
  6  7  1  0  0  0
  6 19  1  0  0  0
  6 20  1  0  0  0
  7 21  1  0  0  0
  7 22  1  0  0  0
  7 23  1  0  0  0
M  END
>  <i_m_Spin_multiplicity> (1)
1

>  <s_j_Task> (1)
Single Point

>  <s_j_QM_Method> (1)
DFT(b3lyp-d3)

>  <s_j_QM_Basis> (1)
cc-pvtz(-f)

>  <i_j_Number_of_canonical_orbitals> (1)
304

>  <i_j_Geometry_convergence_category> (1)
3

>  <r_j_Gas_Phase_Energy> (1)
-276.509165602193

>  <r_j_Final_Energy> (1)
-276.509165602193

>  <r_j_HOMO> (1)
-0.304110211720192

>  <r_j_LUMO> (1)
0.0276194993065827

>  <r_j_Polarizability> (1)
86.7439488488745

>  <r_j_QM_Dipole_(debye)> (1)
0.045891889517449

>  <r_j_QM_Dipole_X_(debye)> (1)
-0.0138510482591307

>  <r_j_QM_Dipole_Y_(debye)> (1)
-0.0222857615758499

>  <r_j_QM_Dipole_Z_(debye)> (1)
-0.0376504822889342

>  <r_j_Lowest_Frequency_(cm-1)> (1)
123.877724450202

>  <r_j_Highest_Frequency_(cm-1)> (1)
3052.85642611583

>  <r_j_2nd_Lowest_Frequency_(cm-1)> (1)
134.675276337902

>  <i_j_Num_Negative_Frequencies> (1)
0

>  <r_j_Zero_Point_Energy_(kcal/mol)> (1)
136.051258895463

>  <r_j_Entropy_(cal/mol/K)_298.15K_1.00E+00atm> (1)
90.3275250195328

>  <r_j_Enthalpy_(kcal/mol)_298.15K_1.00E+00atm> (1)
6.27333831264557

>  <r_j_Free_Energy_(kcal/mol)_298.15K_1.00E+00atm> (1)
-20.6578132719281

>  <r_j_Internal_Energy_(kcal/mol)_298.15K_1.00E+00atm> (1)
5.68085272381829

>  <r_j_Heat_Capacity_(cal/mol/K)_298.15K_1.00E+00atm> (1)
34.0451555426531

>  <r_j_ln(Q)_298.15K_1.00E+00atm> (1)
34.8663556742651

>  <r_j_Total_Internal_Energy_(au)_298.15K_1.00E+00atm> (1)
-276.283301103895

>  <r_j_Total_Enthalpy_(au)_298.15K_1.00E+00atm> (1)
-276.282356918002

>  <r_j_Total_Free_Energy_(au)_298.15K_1.00E+00atm> (1)
-276.325274440163

>  <r_lp_tautomer_probability> (1)
1

>  <r_epik_Ionization_Penalty> (1)
  0.0000

>  <r_epik_Ionization_Penalty_Charging> (1)
  0.0000

>  <r_epik_Ionization_Penalty_Neutral> (1)
  0.0000

>  <r_epik_State_Penalty> (1)
  0.0000

>  <r_epik_Charging_Adjusted_Penalty> (1)
0

>  <i_epik_Tot_Q> (1)
0

>  <i_epik_Tot_abs_Q> (1)
0

>  <s_lp_Force_Field> (1)
S-OPLS

>  <r_lp_Energy> (1)
4.92986

>  <b_lp_Chiralities_Consistent> (1)
1

$$$$
