12053_2-Phenyl-2-propanol
                    3D
 Schrodinger Suite 2021-3.
 22 22  0  0  1  0            999 V2000
   -0.0526   -0.0305   -0.0128 C   0  0  0  0  0  0
    1.4862    0.0071   -0.0196 C   0  0  0  0  0  0
    2.0192    0.7045   -1.2841 C   0  0  0  0  0  0
    2.0064    0.7083    1.2350 C   0  0  0  0  0  0
    2.8095    0.0386    2.1632 C   0  0  0  0  0  0
    3.2745    0.6962    3.3036 C   0  0  0  0  0  0
    2.9452    2.0307    3.5343 C   0  0  0  0  0  0
    2.1438    2.7071    2.6132 C   0  0  0  0  0  0
    1.6801    2.0504    1.4754 C   0  0  0  0  0  0
    1.9848   -1.3373    0.0150 O   0  0  0  0  0  0
   -0.4835    0.9745   -0.0064 H   0  0  0  0  0  0
   -0.4047   -0.5662    0.8723 H   0  0  0  0  0  0
   -0.4233   -0.5477   -0.9065 H   0  0  0  0  0  0
    1.6919    1.7462   -1.3427 H   0  0  0  0  0  0
    1.6571    0.1891   -2.1822 H   0  0  0  0  0  0
    3.1118    0.6818   -1.2849 H   0  0  0  0  0  0
    3.0666   -0.9984    1.9861 H   0  0  0  0  0  0
    3.8976    0.1596    4.0138 H   0  0  0  0  0  0
    3.3082    2.5406    4.4221 H   0  0  0  0  0  0
    1.8790    3.7475    2.7802 H   0  0  0  0  0  0
    1.0571    2.5928    0.7693 H   0  0  0  0  0  0
    1.6539   -1.7854   -0.7739 H   0  0  0  0  0  0
  1  2  1  0  0  0
  1 11  1  0  0  0
  1 12  1  0  0  0
  1 13  1  0  0  0
  2  3  1  0  0  0
  2  4  1  0  0  0
  2 10  1  0  0  0
  3 14  1  0  0  0
  3 15  1  0  0  0
  3 16  1  0  0  0
  4  9  1  0  0  0
  4  5  2  0  0  0
  5  6  1  0  0  0
  5 17  1  0  0  0
  6  7  2  0  0  0
  6 18  1  0  0  0
  7  8  1  0  0  0
  7 19  1  0  0  0
  8  9  2  0  0  0
  8 20  1  0  0  0
  9 21  1  0  0  0
 10 22  1  0  0  0
M  END
>  <i_m_Spin_multiplicity> (1)
1

>  <s_j_Task> (1)
Single Point

>  <s_j_QM_Method> (1)
DFT(b3lyp-d3)

>  <s_j_QM_Basis> (1)
cc-pvtz(-f)

>  <i_j_Number_of_canonical_orbitals> (1)
331

>  <i_j_Geometry_convergence_category> (1)
3

>  <r_j_Gas_Phase_Energy> (1)
-425.569543102724

>  <r_j_Final_Energy> (1)
-425.569543102724

>  <r_j_HOMO> (1)
-0.248908662201253

>  <r_j_LUMO> (1)
-0.0148306100080393

>  <r_j_Polarizability> (1)
105.067011258663

>  <r_j_QM_Dipole_(debye)> (1)
1.60994179385734

>  <r_j_QM_Dipole_X_(debye)> (1)
-0.908144994814976

>  <r_j_QM_Dipole_Y_(debye)> (1)
0.287058985935577

>  <r_j_QM_Dipole_Z_(debye)> (1)
-1.29799167431641

>  <r_j_Lowest_Frequency_(cm-1)> (1)
77.0858003001277

>  <r_j_Highest_Frequency_(cm-1)> (1)
3768.14806329321

>  <r_j_2nd_Lowest_Frequency_(cm-1)> (1)
147.109098047464

>  <i_j_Num_Negative_Frequencies> (1)
0

>  <r_j_Zero_Point_Energy_(kcal/mol)> (1)
118.224991787108

>  <r_j_Entropy_(cal/mol/K)_298.15K_1.00E+00atm> (1)
91.6246751175014

>  <r_j_Enthalpy_(kcal/mol)_298.15K_1.00E+00atm> (1)
6.35773559838162

>  <r_j_Free_Energy_(kcal/mol)_298.15K_1.00E+00atm> (1)
-20.9601612879014

>  <r_j_Internal_Energy_(kcal/mol)_298.15K_1.00E+00atm> (1)
5.76525000955435

>  <r_j_Heat_Capacity_(cal/mol/K)_298.15K_1.00E+00atm> (1)
37.4602276887805

>  <r_j_ln(Q)_298.15K_1.00E+00atm> (1)
35.3766600963046

>  <r_j_Total_Internal_Energy_(au)_298.15K_1.00E+00atm> (1)
-425.371952073864

>  <r_j_Total_Enthalpy_(au)_298.15K_1.00E+00atm> (1)
-425.371007887972

>  <r_j_Total_Free_Energy_(au)_298.15K_1.00E+00atm> (1)
-425.414541728005

>  <r_lp_tautomer_probability> (1)
1

>  <r_epik_Ionization_Penalty> (1)
  0.0000

>  <r_epik_Ionization_Penalty_Charging> (1)
  0.0000

>  <r_epik_Ionization_Penalty_Neutral> (1)
  0.0000

>  <r_epik_State_Penalty> (1)
  0.0000

>  <r_epik_Charging_Adjusted_Penalty> (1)
0

>  <i_epik_Tot_Q> (1)
0

>  <i_epik_Tot_abs_Q> (1)
0

>  <s_lp_Force_Field> (1)
S-OPLS

>  <r_lp_Energy> (1)
11.4405

>  <b_lp_Chiralities_Consistent> (1)
1

$$$$
