12052911_Henicosanal
                    3D
 Schrodinger Suite 2021-3.
 64 63  0  0  1  0            999 V2000
   -9.5094    2.8325    2.3293 C   0  0  0  0  0  0
   -8.8165    1.4673    2.3709 C   0  0  0  0  0  0
   -7.2864    1.5690    2.3668 C   0  0  0  0  0  0
   -6.5938    0.2007    2.4053 C   0  0  0  0  0  0
   -5.0610    0.2605    2.4832 C   0  0  0  0  0  0
   -4.3835    0.8814    1.2542 C   0  0  0  0  0  0
   -2.8535    0.8033    1.3115 C   0  0  0  0  0  0
   -2.1679    1.4196    0.0851 C   0  0  0  0  0  0
   -0.6322    1.3898    0.1351 C   0  0  0  0  0  0
   -0.0258   -0.0196    0.1082 C   0  0  0  0  0  0
    1.5068   -0.0194    0.0945 C   0  0  0  0  0  0
    2.1144   -1.4269    0.0928 C   0  0  0  0  0  0
    3.6468   -1.4252    0.1077 C   0  0  0  0  0  0
    4.2556   -2.8334    0.1387 C   0  0  0  0  0  0
    5.7913   -2.8594    0.0903 C   0  0  0  0  0  0
    6.4694   -2.2167    1.3069 C   0  0  0  0  0  0
    7.9995   -2.2904    1.2595 C   0  0  0  0  0  0
    8.6663   -1.6114    2.4608 C   0  0  0  0  0  0
   10.1972   -1.6404    2.4024 C   0  0  0  0  0  0
   10.8484   -0.9444    3.6132 C   0  0  0  0  0  0
   12.3512   -0.8888    3.4771 C   0  0  0  0  0  0
   13.1361   -1.4001    4.2449 O   0  0  0  0  0  0
  -10.5998    2.7317    2.3333 H   0  0  0  0  0  0
   -9.2292    3.3895    1.4277 H   0  0  0  0  0  0
   -9.2278    3.4440    3.1944 H   0  0  0  0  0  0
   -9.1399    0.9172    3.2652 H   0  0  0  0  0  0
   -9.1398    0.8641    1.5114 H   0  0  0  0  0  0
   -6.9686    2.1261    1.4755 H   0  0  0  0  0  0
   -6.9589    2.1659    3.2306 H   0  0  0  0  0  0
   -6.9714   -0.3611    3.2705 H   0  0  0  0  0  0
   -6.8880   -0.3776    1.5175 H   0  0  0  0  0  0
   -4.7636    0.8203    3.3816 H   0  0  0  0  0  0
   -4.6744   -0.7586    2.6207 H   0  0  0  0  0  0
   -4.7389    0.3692    0.3481 H   0  0  0  0  0  0
   -4.6867    1.9312    1.1477 H   0  0  0  0  0  0
   -2.4955    1.3114    2.2189 H   0  0  0  0  0  0
   -2.5570   -0.2484    1.4168 H   0  0  0  0  0  0
   -2.5107    0.8990   -0.8208 H   0  0  0  0  0  0
   -2.5015    2.4609   -0.0200 H   0  0  0  0  0  0
   -0.2363    1.9611   -0.7155 H   0  0  0  0  0  0
   -0.2882    1.9142    1.0384 H   0  0  0  0  0  0
   -0.3710   -0.5919    0.9789 H   0  0  0  0  0  0
   -0.3989   -0.5573   -0.7756 H   0  0  0  0  0  0
    1.8656    0.5345   -0.7849 H   0  0  0  0  0  0
    1.8763    0.5332    0.9704 H   0  0  0  0  0  0
    1.7448   -1.9817    0.9673 H   0  0  0  0  0  0
    1.7565   -1.9788   -0.7881 H   0  0  0  0  0  0
    4.0206   -0.8883   -0.7765 H   0  0  0  0  0  0
    3.9896   -0.8507    0.9780 H   0  0  0  0  0  0
    3.9123   -3.3558    1.0432 H   0  0  0  0  0  0
    3.8624   -3.4083   -0.7105 H   0  0  0  0  0  0
    6.1297   -3.9009    0.0044 H   0  0  0  0  0  0
    6.1337   -2.3526   -0.8235 H   0  0  0  0  0  0
    6.1706   -1.1636    1.3868 H   0  0  0  0  0  0
    6.1082   -2.7052    2.2234 H   0  0  0  0  0  0
    8.3171   -3.3414    1.2087 H   0  0  0  0  0  0
    8.3567   -1.8199    0.3322 H   0  0  0  0  0  0
    8.3286   -0.5669    2.5212 H   0  0  0  0  0  0
    8.3283   -2.0936    3.3884 H   0  0  0  0  0  0
   10.5466   -2.6797    2.3524 H   0  0  0  0  0  0
   10.5355   -1.1562    1.4755 H   0  0  0  0  0  0
   10.4748    0.0886    3.6741 H   0  0  0  0  0  0
   10.6008   -1.4552    4.5488 H   0  0  0  0  0  0
   12.7128   -0.3388    2.5752 H   0  0  0  0  0  0
  1  2  1  0  0  0
  1 23  1  0  0  0
  1 24  1  0  0  0
  1 25  1  0  0  0
  2  3  1  0  0  0
  2 26  1  0  0  0
  2 27  1  0  0  0
  3  4  1  0  0  0
  3 28  1  0  0  0
  3 29  1  0  0  0
  4  5  1  0  0  0
  4 30  1  0  0  0
  4 31  1  0  0  0
  5  6  1  0  0  0
  5 32  1  0  0  0
  5 33  1  0  0  0
  6  7  1  0  0  0
  6 34  1  0  0  0
  6 35  1  0  0  0
  7  8  1  0  0  0
  7 36  1  0  0  0
  7 37  1  0  0  0
  8  9  1  0  0  0
  8 38  1  0  0  0
  8 39  1  0  0  0
  9 10  1  0  0  0
  9 40  1  0  0  0
  9 41  1  0  0  0
 10 11  1  0  0  0
 10 42  1  0  0  0
 10 43  1  0  0  0
 11 12  1  0  0  0
 11 44  1  0  0  0
 11 45  1  0  0  0
 12 13  1  0  0  0
 12 46  1  0  0  0
 12 47  1  0  0  0
 13 14  1  0  0  0
 13 48  1  0  0  0
 13 49  1  0  0  0
 14 15  1  0  0  0
 14 50  1  0  0  0
 14 51  1  0  0  0
 15 16  1  0  0  0
 15 52  1  0  0  0
 15 53  1  0  0  0
 16 17  1  0  0  0
 16 54  1  0  0  0
 16 55  1  0  0  0
 17 18  1  0  0  0
 17 56  1  0  0  0
 17 57  1  0  0  0
 18 19  1  0  0  0
 18 58  1  0  0  0
 18 59  1  0  0  0
 19 20  1  0  0  0
 19 60  1  0  0  0
 19 61  1  0  0  0
 20 21  1  0  0  0
 20 62  1  0  0  0
 20 63  1  0  0  0
 21 22  2  0  0  0
 21 64  1  0  0  0
M  END
>  <i_m_Spin_multiplicity> (1)
1

>  <s_j_Task> (1)
Single Point

>  <s_j_QM_Method> (1)
DFT(b3lyp-d3)

>  <s_j_QM_Basis> (1)
cc-pvtz(-f)

>  <i_j_Number_of_canonical_orbitals> (1)
878

>  <i_j_Geometry_convergence_category> (1)
3

>  <r_j_Gas_Phase_Energy> (1)
-901.147673051174

>  <r_j_Final_Energy> (1)
-901.147673051174

>  <r_j_HOMO> (1)
-0.283466955203594

>  <r_j_LUMO> (1)
-0.0579776042565482

>  <r_j_Polarizability> (1)
263.57746534045

>  <r_j_QM_Dipole_(debye)> (1)
3.16424329845852

>  <r_j_QM_Dipole_X_(debye)> (1)
-2.59838394294339

>  <r_j_QM_Dipole_Y_(debye)> (1)
0.71308500232851

>  <r_j_QM_Dipole_Z_(debye)> (1)
-1.65901968534064

>  <r_j_Lowest_Frequency_(cm-1)> (1)
17.6775291519322

>  <r_j_Highest_Frequency_(cm-1)> (1)
3050.34693826119

>  <r_j_2nd_Lowest_Frequency_(cm-1)> (1)
33.4518647175483

>  <i_j_Num_Negative_Frequencies> (1)
0

>  <r_j_Zero_Point_Energy_(kcal/mol)> (1)
374.813530148219

>  <r_j_Entropy_(cal/mol/K)_298.15K_1.00E+00atm> (1)
173.046765400224

>  <r_j_Enthalpy_(kcal/mol)_298.15K_1.00E+00atm> (1)
17.2197089915996

>  <r_j_Free_Energy_(kcal/mol)_298.15K_1.00E+00atm> (1)
-34.3741841124773

>  <r_j_Internal_Energy_(kcal/mol)_298.15K_1.00E+00atm> (1)
16.6272234027723

>  <r_j_Heat_Capacity_(cal/mol/K)_298.15K_1.00E+00atm> (1)
100.81244000899

>  <r_j_ln(Q)_298.15K_1.00E+00atm> (1)
58.0169117370689

>  <r_j_Total_Internal_Energy_(au)_298.15K_1.00E+00atm> (1)
-900.523872499525

>  <r_j_Total_Enthalpy_(au)_298.15K_1.00E+00atm> (1)
-900.522928313633

>  <r_j_Total_Free_Energy_(au)_298.15K_1.00E+00atm> (1)
-900.60514841639

>  <r_lp_tautomer_probability> (1)
1

>  <r_epik_Ionization_Penalty> (1)
  0.0000

>  <r_epik_Ionization_Penalty_Charging> (1)
  0.0000

>  <r_epik_Ionization_Penalty_Neutral> (1)
  0.0000

>  <r_epik_State_Penalty> (1)
  0.0000

>  <r_epik_Charging_Adjusted_Penalty> (1)
0

>  <i_epik_Tot_Q> (1)
0

>  <i_epik_Tot_abs_Q> (1)
0

>  <s_lp_Force_Field> (1)
S-OPLS

>  <r_lp_Energy> (1)
11.4851

>  <b_lp_Chiralities_Consistent> (1)
1

$$$$
