12073_3,4-Dimethylbenzoic acid
                    3D
 Schrodinger Suite 2021-3.
 20 20  0  0  1  0            999 V2000
   -0.0321   -0.0596    0.0000 C   0  0  0  0  0  0
    1.4826    0.0060    0.0000 C   0  0  0  0  0  0
    2.1940    1.2226    0.0000 C   0  0  0  0  0  0
    3.5949    1.1899    0.0000 C   0  0  0  0  0  0
    4.3190   -0.0033    0.0001 C   0  0  0  0  0  0
    3.6019   -1.2032    0.0001 C   0  0  0  0  0  0
    2.2096   -1.1936    0.0000 C   0  0  0  0  0  0
    5.8749    0.0027    0.0000 C   0  0  0  0  0  0
    6.4096   -1.1346   -0.0002 O   0  0  0  0  0  0
    6.4037    1.1429    0.0000 O   0  5  0  0  0  0
    1.4818    2.5610    0.0000 C   0  0  0  0  0  0
   -0.5000    0.9276    0.0000 H   0  0  0  0  0  0
   -0.4080   -0.5978    0.8804 H   0  0  0  0  0  0
   -0.4080   -0.5978   -0.8803 H   0  0  0  0  0  0
    4.1778    2.1082    0.0000 H   0  0  0  0  0  0
    4.1765   -2.1251    0.0001 H   0  0  0  0  0  0
    1.6604   -2.1365    0.0000 H   0  0  0  0  0  0
    2.2083    3.3789    0.0002 H   0  0  0  0  0  0
    0.8393    2.6917    0.8812 H   0  0  0  0  0  0
    0.8396    2.6919   -0.8815 H   0  0  0  0  0  0
  1  2  1  0  0  0
  1 12  1  0  0  0
  1 13  1  0  0  0
  1 14  1  0  0  0
  2  7  1  0  0  0
  2  3  2  0  0  0
  3  4  1  0  0  0
  3 11  1  0  0  0
  4  5  2  0  0  0
  4 15  1  0  0  0
  5  6  1  0  0  0
  5  8  1  0  0  0
  6  7  2  0  0  0
  6 16  1  0  0  0
  7 17  1  0  0  0
  8  9  2  0  0  0
  8 10  1  0  0  0
 11 18  1  0  0  0
 11 19  1  0  0  0
 11 20  1  0  0  0
M  END
>  <i_m_Spin_multiplicity> (1)
1

>  <s_j_Task> (1)
Single Point

>  <s_j_QM_Method> (1)
DFT(b3lyp-d3)

>  <s_j_QM_Basis> (1)
cc-pvtz(-f)

>  <i_j_Number_of_canonical_orbitals> (1)
328

>  <i_j_Geometry_convergence_category> (1)
0

>  <r_j_Gas_Phase_Energy> (1)
-499.078679390577

>  <r_j_Final_Energy> (1)
-499.078679390577

>  <r_j_HOMO> (1)
-0.0457541884235355

>  <r_j_LUMO> (1)
0.114247258599095

>  <r_j_Polarizability> (1)
113.241947998748

>  <r_j_QM_Dipole_(debye)> (1)
11.2169648191625

>  <r_j_QM_Dipole_X_(debye)> (1)
-11.1600542150323

>  <r_j_QM_Dipole_Y_(debye)> (1)
1.12848991966767

>  <r_j_QM_Dipole_Z_(debye)> (1)
0.000416026086411213

>  <r_j_Lowest_Frequency_(cm-1)> (1)
88.2399732465017

>  <r_j_Highest_Frequency_(cm-1)> (1)
3136.86987079997

>  <r_j_2nd_Lowest_Frequency_(cm-1)> (1)
107.713443335198

>  <i_j_Num_Negative_Frequencies> (1)
0

>  <r_j_Zero_Point_Energy_(kcal/mol)> (1)
98.0764562131212

>  <r_j_Entropy_(cal/mol/K)_298.15K_1.00E+00atm> (1)
96.8027047733413

>  <r_j_Enthalpy_(kcal/mol)_298.15K_1.00E+00atm> (1)
6.80031724356298

>  <r_j_Free_Energy_(kcal/mol)_298.15K_1.00E+00atm> (1)
-22.0614091846087

>  <r_j_Internal_Energy_(kcal/mol)_298.15K_1.00E+00atm> (1)
6.2078316547357

>  <r_j_Heat_Capacity_(cal/mol/K)_298.15K_1.00E+00atm> (1)
37.5498705475206

>  <r_j_ln(Q)_298.15K_1.00E+00atm> (1)
37.2353515437828

>  <r_j_Total_Internal_Energy_(au)_298.15K_1.00E+00atm> (1)
-498.912491798432

>  <r_j_Total_Enthalpy_(au)_298.15K_1.00E+00atm> (1)
-498.911547612539

>  <r_j_Total_Free_Energy_(au)_298.15K_1.00E+00atm> (1)
-498.957541701566

>  <r_epik_Ionization_Penalty> (1)
  0.0013

>  <r_epik_Ionization_Penalty_Charging> (1)
  0.0013

>  <r_epik_Ionization_Penalty_Neutral> (1)
  0.0000

>  <r_epik_State_Penalty> (1)
  0.0009

>  <r_epik_Charging_Adjusted_Penalty> (1)
0.00220515

>  <i_epik_Tot_Q> (1)
-1

>  <i_epik_Tot_abs_Q> (1)
1

>  <s_lp_Force_Field> (1)
S-OPLS

>  <r_lp_Energy> (1)
15.6932

>  <b_lp_Chiralities_Consistent> (1)
1

$$$$
