12096_3-ethylhexane
                    3D
 Schrodinger Suite 2021-3.
 26 25  0  0  1  0            999 V2000
   -2.1226    1.5469    0.0461 C   0  0  0  0  0  0
   -0.5957    1.4579    0.1320 C   0  0  0  0  0  0
   -0.0656    0.0521   -0.1798 C   0  0  0  0  0  0
    1.4710   -0.0851   -0.1308 C   0  0  0  0  0  0
    2.1260    0.5667   -1.3676 C   0  0  0  0  0  0
    3.6230    0.8571   -1.2136 C   0  0  0  0  0  0
    1.8952   -1.5625    0.0102 C   0  0  0  0  0  0
    1.6399   -2.1639    1.3966 C   0  0  0  0  0  0
   -2.4818    2.5536    0.2845 H   0  0  0  0  0  0
   -2.5985    0.8485    0.7442 H   0  0  0  0  0  0
   -2.4752    1.2964   -0.9611 H   0  0  0  0  0  0
   -0.1523    2.1909   -0.5536 H   0  0  0  0  0  0
   -0.2660    1.7471    1.1392 H   0  0  0  0  0  0
   -0.5235   -0.6476    0.5309 H   0  0  0  0  0  0
   -0.4156   -0.2609   -1.1750 H   0  0  0  0  0  0
    1.8296    0.4529    0.7620 H   0  0  0  0  0  0
    1.9596   -0.0867   -2.2360 H   0  0  0  0  0  0
    1.6139    1.5083   -1.5986 H   0  0  0  0  0  0
    4.0306    1.3207   -2.1180 H   0  0  0  0  0  0
    4.2024   -0.0521   -1.0228 H   0  0  0  0  0  0
    3.8021    1.5432   -0.3777 H   0  0  0  0  0  0
    1.3701   -2.1519   -0.7551 H   0  0  0  0  0  0
    2.9635   -1.6599   -0.2164 H   0  0  0  0  0  0
    1.9601   -3.2102    1.4386 H   0  0  0  0  0  0
    0.5801   -2.1349    1.6698 H   0  0  0  0  0  0
    2.1934   -1.6146    2.1670 H   0  0  0  0  0  0
  1  2  1  0  0  0
  1  9  1  0  0  0
  1 10  1  0  0  0
  1 11  1  0  0  0
  2  3  1  0  0  0
  2 12  1  0  0  0
  2 13  1  0  0  0
  3  4  1  0  0  0
  3 14  1  0  0  0
  3 15  1  0  0  0
  4  5  1  0  0  0
  4  7  1  0  0  0
  4 16  1  0  0  0
  5  6  1  0  0  0
  5 17  1  0  0  0
  5 18  1  0  0  0
  6 19  1  0  0  0
  6 20  1  0  0  0
  6 21  1  0  0  0
  7  8  1  0  0  0
  7 22  1  0  0  0
  7 23  1  0  0  0
  8 24  1  0  0  0
  8 25  1  0  0  0
  8 26  1  0  0  0
M  END
>  <i_m_Spin_multiplicity> (1)
1

>  <s_j_Task> (1)
Single Point

>  <s_j_QM_Method> (1)
DFT(b3lyp-d3)

>  <s_j_QM_Basis> (1)
cc-pvtz(-f)

>  <i_j_Number_of_canonical_orbitals> (1)
344

>  <i_j_Geometry_convergence_category> (1)
1

>  <r_j_Gas_Phase_Energy> (1)
-315.838759293207

>  <r_j_Final_Energy> (1)
-315.838759293207

>  <r_j_HOMO> (1)
-0.300898838163014

>  <r_j_LUMO> (1)
0.027665554773564

>  <r_j_Polarizability> (1)
99.0262475733444

>  <r_j_QM_Dipole_(debye)> (1)
0.0645809343965565

>  <r_j_QM_Dipole_X_(debye)> (1)
0.0409920440042455

>  <r_j_QM_Dipole_Y_(debye)> (1)
0.0414813708698739

>  <r_j_QM_Dipole_Z_(debye)> (1)
-0.0277424816237176

>  <r_j_Lowest_Frequency_(cm-1)> (1)
104.436142113592

>  <r_j_Highest_Frequency_(cm-1)> (1)
3051.58375031276

>  <r_j_2nd_Lowest_Frequency_(cm-1)> (1)
121.754266692652

>  <i_j_Num_Negative_Frequencies> (1)
0

>  <r_j_Zero_Point_Energy_(kcal/mol)> (1)
153.903660285452

>  <r_j_Entropy_(cal/mol/K)_298.15K_1.00E+00atm> (1)
96.7932489837971

>  <r_j_Enthalpy_(kcal/mol)_298.15K_1.00E+00atm> (1)
7.0511777642229

>  <r_j_Free_Energy_(kcal/mol)_298.15K_1.00E+00atm> (1)
-21.8077294202962

>  <r_j_Internal_Energy_(kcal/mol)_298.15K_1.00E+00atm> (1)
6.45869217539563

>  <r_j_Heat_Capacity_(cal/mol/K)_298.15K_1.00E+00atm> (1)
38.7769089379926

>  <r_j_ln(Q)_298.15K_1.00E+00atm> (1)
36.8071896287991

>  <r_j_Total_Internal_Energy_(au)_298.15K_1.00E+00atm> (1)
-315.583205616128

>  <r_j_Total_Enthalpy_(au)_298.15K_1.00E+00atm> (1)
-315.582261430236

>  <r_j_Total_Free_Energy_(au)_298.15K_1.00E+00atm> (1)
-315.628251026511

>  <r_lp_tautomer_probability> (1)
1

>  <r_epik_Ionization_Penalty> (1)
  0.0000

>  <r_epik_Ionization_Penalty_Charging> (1)
  0.0000

>  <r_epik_Ionization_Penalty_Neutral> (1)
  0.0000

>  <r_epik_State_Penalty> (1)
  0.0000

>  <r_epik_Charging_Adjusted_Penalty> (1)
0

>  <i_epik_Tot_Q> (1)
0

>  <i_epik_Tot_abs_Q> (1)
0

>  <s_lp_Force_Field> (1)
S-OPLS

>  <r_lp_Energy> (1)
5.500478

>  <b_lp_Chiralities_Consistent> (1)
1

$$$$
