12209_2-methyl-1-butyl acetate
                    3D
 Schrodinger Suite 2021-3.
 23 22  0  0  1  0            999 V2000
   -1.9734   -0.8915   -1.2755 C   0  0  0  0  0  0
   -0.4657   -0.6213   -1.2692 C   0  0  0  0  0  0
    0.0403    0.1122   -0.0123 C   0  0  0  0  0  0
   -0.5101    1.5413    0.1006 C   0  0  0  0  0  0
    1.5652    0.1604    0.0123 C   0  0  0  0  0  0
    2.0568   -1.1989    0.0649 O   0  0  0  0  0  0
    3.3967   -1.3468   -0.0259 C   0  0  0  0  0  0
    4.1699   -0.4202   -0.1382 O   0  0  0  0  0  0
    3.8004   -2.8025    0.0343 C   0  0  0  0  0  0
   -2.2623   -1.4736   -2.1564 H   0  0  0  0  0  0
   -2.5582    0.0337   -1.2889 H   0  0  0  0  0  0
   -2.2729   -1.4614   -0.3882 H   0  0  0  0  0  0
    0.0709   -1.5727   -1.3515 H   0  0  0  0  0  0
   -0.1895   -0.0318   -2.1554 H   0  0  0  0  0  0
   -0.2814   -0.4585    0.8709 H   0  0  0  0  0  0
   -0.2181    2.1418   -0.7694 H   0  0  0  0  0  0
   -0.1335    2.0450    0.9974 H   0  0  0  0  0  0
   -1.6018    1.5445    0.1553 H   0  0  0  0  0  0
    1.9681    0.6530   -0.8804 H   0  0  0  0  0  0
    1.9419    0.7041    0.8856 H   0  0  0  0  0  0
    2.9370   -3.4650    0.0990 H   0  0  0  0  0  0
    4.4475   -2.9517    0.9031 H   0  0  0  0  0  0
    4.3888   -3.0406   -0.8558 H   0  0  0  0  0  0
  1  2  1  0  0  0
  1 10  1  0  0  0
  1 11  1  0  0  0
  1 12  1  0  0  0
  2  3  1  0  0  0
  2 13  1  0  0  0
  2 14  1  0  0  0
  3  4  1  0  0  0
  3  5  1  0  0  0
  3 15  1  0  0  0
  4 16  1  0  0  0
  4 17  1  0  0  0
  4 18  1  0  0  0
  5  6  1  0  0  0
  5 19  1  0  0  0
  5 20  1  0  0  0
  6  7  1  0  0  0
  7  8  2  0  0  0
  7  9  1  0  0  0
  9 21  1  0  0  0
  9 22  1  0  0  0
  9 23  1  0  0  0
M  END
>  <i_m_Spin_multiplicity> (1)
1

>  <s_j_Task> (1)
Single Point

>  <s_j_QM_Method> (1)
DFT(b3lyp-d3)

>  <s_j_QM_Basis> (1)
cc-pvtz(-f)

>  <i_j_Number_of_canonical_orbitals> (1)
332

>  <i_j_Geometry_convergence_category> (1)
3

>  <r_j_Gas_Phase_Energy> (1)
-425.816886128602

>  <r_j_Final_Energy> (1)
-425.816886128602

>  <r_j_HOMO> (1)
-0.282361274836152

>  <r_j_LUMO> (1)
-0.00303379820618266

>  <r_j_Polarizability> (1)
91.9073095541663

>  <r_j_QM_Dipole_(debye)> (1)
2.05548530908233

>  <r_j_QM_Dipole_X_(debye)> (1)
-1.78614352462635

>  <r_j_QM_Dipole_Y_(debye)> (1)
-1.00454819138267

>  <r_j_QM_Dipole_Z_(debye)> (1)
0.159981550431495

>  <r_j_Lowest_Frequency_(cm-1)> (1)
68.9473439119955

>  <r_j_Highest_Frequency_(cm-1)> (1)
3109.26412355458

>  <r_j_2nd_Lowest_Frequency_(cm-1)> (1)
92.7262761329134

>  <i_j_Num_Negative_Frequencies> (1)
0

>  <r_j_Zero_Point_Energy_(kcal/mol)> (1)
127.391104819209

>  <r_j_Entropy_(cal/mol/K)_298.15K_1.00E+00atm> (1)
98.9973102090368

>  <r_j_Enthalpy_(kcal/mol)_298.15K_1.00E+00atm> (1)
7.21413196838147

>  <r_j_Free_Energy_(kcal/mol)_298.15K_1.00E+00atm> (1)
-22.3019160704428

>  <r_j_Internal_Energy_(kcal/mol)_298.15K_1.00E+00atm> (1)
6.62164637955419

>  <r_j_Heat_Capacity_(cal/mol/K)_298.15K_1.00E+00atm> (1)
38.7368940724199

>  <r_j_ln(Q)_298.15K_1.00E+00atm> (1)
37.6412802117022

>  <r_j_Total_Internal_Energy_(au)_298.15K_1.00E+00atm> (1)
-425.603323214246

>  <r_j_Total_Enthalpy_(au)_298.15K_1.00E+00atm> (1)
-425.602379028354

>  <r_j_Total_Free_Energy_(au)_298.15K_1.00E+00atm> (1)
-425.649415845247

>  <r_lp_tautomer_probability> (1)
1

>  <r_epik_Ionization_Penalty> (1)
  0.0000

>  <r_epik_Ionization_Penalty_Charging> (1)
  0.0000

>  <r_epik_Ionization_Penalty_Neutral> (1)
  0.0000

>  <r_epik_State_Penalty> (1)
  0.0000

>  <r_epik_Charging_Adjusted_Penalty> (1)
0

>  <i_epik_Tot_Q> (1)
0

>  <i_epik_Tot_abs_Q> (1)
0

>  <s_lp_Force_Field> (1)
S-OPLS

>  <r_lp_Energy> (1)
1.71817

>  <b_lp_Chiralities_Consistent> (1)
1

>  <s_epik_Chemistry_Notes> (1)
This compound has an ester and may undergo hydrolysis at high or low pH.

$$$$
