12217_Pentyl Propanoate
                    3D
 Schrodinger Suite 2021-3.
 26 25  0  0  1  0            999 V2000
   -2.7365    2.8137   -0.0014 C   0  0  0  0  0  0
   -2.0711    1.4348   -0.0011 C   0  0  0  0  0  0
   -0.5395    1.5093    0.0000 C   0  0  0  0  0  0
    0.1235    0.1274    0.0002 C   0  0  0  0  0  0
    1.6400    0.2157    0.0014 C   0  0  0  0  0  0
    2.1523   -1.1357    0.0009 O   0  0  0  0  0  0
    3.4988   -1.2575    0.0009 C   0  0  0  0  0  0
    4.2592   -0.3128    0.0009 O   0  0  0  0  0  0
    3.9076   -2.7175    0.0012 C   0  0  0  0  0  0
    5.4234   -2.9002   -0.0028 C   0  0  0  0  0  0
   -3.8283    2.7321   -0.0021 H   0  0  0  0  0  0
   -2.4443    3.3925   -0.8851 H   0  0  0  0  0  0
   -2.4455    3.3923    0.8829 H   0  0  0  0  0  0
   -2.4045    0.8641    0.8762 H   0  0  0  0  0  0
   -2.4033    0.8643   -0.8789 H   0  0  0  0  0  0
   -0.2035    2.0791   -0.8780 H   0  0  0  0  0  0
   -0.2047    2.0789    0.8785 H   0  0  0  0  0  0
   -0.1996   -0.4440    0.8793 H   0  0  0  0  0  0
   -0.1980   -0.4435   -0.8798 H   0  0  0  0  0  0
    2.0205    0.7443   -0.8800 H   0  0  0  0  0  0
    2.0191    0.7430    0.8842 H   0  0  0  0  0  0
    3.4449   -3.1904    0.8760 H   0  0  0  0  0  0
    3.4398   -3.1926   -0.8697 H   0  0  0  0  0  0
    5.6838   -3.9626   -0.0019 H   0  0  0  0  0  0
    5.8733   -2.4301    0.8755 H   0  0  0  0  0  0
    5.8685   -2.4327   -0.8849 H   0  0  0  0  0  0
  1  2  1  0  0  0
  1 11  1  0  0  0
  1 12  1  0  0  0
  1 13  1  0  0  0
  2  3  1  0  0  0
  2 14  1  0  0  0
  2 15  1  0  0  0
  3  4  1  0  0  0
  3 16  1  0  0  0
  3 17  1  0  0  0
  4  5  1  0  0  0
  4 18  1  0  0  0
  4 19  1  0  0  0
  5  6  1  0  0  0
  5 20  1  0  0  0
  5 21  1  0  0  0
  6  7  1  0  0  0
  7  8  2  0  0  0
  7  9  1  0  0  0
  9 10  1  0  0  0
  9 22  1  0  0  0
  9 23  1  0  0  0
 10 24  1  0  0  0
 10 25  1  0  0  0
 10 26  1  0  0  0
M  END
>  <i_m_Spin_multiplicity> (1)
1

>  <s_j_Task> (1)
Single Point

>  <s_j_QM_Method> (1)
DFT(b3lyp-d3)

>  <s_j_QM_Basis> (1)
cc-pvtz(-f)

>  <i_j_Number_of_canonical_orbitals> (1)
372

>  <i_j_Geometry_convergence_category> (1)
0

>  <r_j_Gas_Phase_Energy> (1)
-465.146282272891

>  <r_j_Final_Energy> (1)
-465.146282272891

>  <r_j_HOMO> (1)
-0.281670205119415

>  <r_j_LUMO> (1)
-0.00113572011722488

>  <r_j_Polarizability> (1)
105.123614201181

>  <r_j_QM_Dipole_(debye)> (1)
2.01706787602915

>  <r_j_QM_Dipole_X_(debye)> (1)
-1.82402301261813

>  <r_j_QM_Dipole_Y_(debye)> (1)
-0.861105191399457

>  <r_j_QM_Dipole_Z_(debye)> (1)
0.000845750046793213

>  <r_j_Lowest_Frequency_(cm-1)> (1)
54.3208918662038

>  <r_j_Highest_Frequency_(cm-1)> (1)
3076.15558680207

>  <r_j_2nd_Lowest_Frequency_(cm-1)> (1)
81.6949704387778

>  <i_j_Num_Negative_Frequencies> (1)
0

>  <r_j_Zero_Point_Energy_(kcal/mol)> (1)
145.482066913311

>  <r_j_Entropy_(cal/mol/K)_298.15K_1.00E+00atm> (1)
105.771344347431

>  <r_j_Enthalpy_(kcal/mol)_298.15K_1.00E+00atm> (1)
8.02396144197932

>  <r_j_Free_Energy_(kcal/mol)_298.15K_1.00E+00atm> (1)
-23.5117648752072

>  <r_j_Internal_Energy_(kcal/mol)_298.15K_1.00E+00atm> (1)
7.43147585315204

>  <r_j_Heat_Capacity_(cal/mol/K)_298.15K_1.00E+00atm> (1)
42.9609303889534

>  <r_j_ln(Q)_298.15K_1.00E+00atm> (1)
39.6832687892794

>  <r_j_Total_Internal_Energy_(au)_298.15K_1.00E+00atm> (1)
-464.902599029726

>  <r_j_Total_Enthalpy_(au)_298.15K_1.00E+00atm> (1)
-464.901654843834

>  <r_j_Total_Free_Energy_(au)_298.15K_1.00E+00atm> (1)
-464.951910222956

>  <r_lp_tautomer_probability> (1)
1

>  <r_epik_Ionization_Penalty> (1)
  0.0000

>  <r_epik_Ionization_Penalty_Charging> (1)
  0.0000

>  <r_epik_Ionization_Penalty_Neutral> (1)
  0.0000

>  <r_epik_State_Penalty> (1)
  0.0000

>  <r_epik_Charging_Adjusted_Penalty> (1)
0

>  <i_epik_Tot_Q> (1)
0

>  <i_epik_Tot_abs_Q> (1)
0

>  <s_lp_Force_Field> (1)
S-OPLS

>  <r_lp_Energy> (1)
1.638039

>  <b_lp_Chiralities_Consistent> (1)
1

>  <s_epik_Chemistry_Notes> (1)
This compound has an ester and may undergo hydrolysis at high or low pH.

$$$$
