12228_Methyl isocyanate
                    3D
 Schrodinger Suite 2021-3.
  7  6  0  0  1  0            999 V2000
   -0.0868    0.0275    0.0001 C   0  0  0  0  0  0
    1.3205   -0.2804    0.0012 N   0  0  0  0  0  0
    2.0441   -1.2450   -0.0008 C   0  0  0  0  0  0
    2.8648   -2.0950   -0.0005 O   0  0  0  0  0  0
   -0.2136    1.1121   -0.0006 H   0  0  0  0  0  0
   -0.5815   -0.3759    0.8904 H   0  0  0  0  0  0
   -0.5805   -0.3770   -0.8902 H   0  0  0  0  0  0
  1  2  1  0  0  0
  1  5  1  0  0  0
  1  6  1  0  0  0
  1  7  1  0  0  0
  2  3  2  0  0  0
  3  4  2  0  0  0
M  END
>  <i_m_Spin_multiplicity> (1)
1

>  <s_j_Task> (1)
Single Point

>  <s_j_QM_Method> (1)
DFT(b3lyp-d3)

>  <s_j_QM_Basis> (1)
cc-pvtz(-f)

>  <i_j_Number_of_canonical_orbitals> (1)
119

>  <i_j_Geometry_convergence_category> (1)
0

>  <r_j_Gas_Phase_Energy> (1)
-208.065854051874

>  <r_j_Final_Energy> (1)
-208.065854051874

>  <r_j_HOMO> (1)
-0.291785655254837

>  <r_j_LUMO> (1)
-0.00445991741953693

>  <r_j_Polarizability> (1)
32.5173534004584

>  <r_j_QM_Dipole_(debye)> (1)
2.94376663327543

>  <r_j_QM_Dipole_X_(debye)> (1)
-2.71332938509388

>  <r_j_QM_Dipole_Y_(debye)> (1)
1.14175229815613

>  <r_j_QM_Dipole_Z_(debye)> (1)
-0.00270718063427057

>  <r_j_Lowest_Frequency_(cm-1)> (1)
166.006857788405

>  <r_j_Highest_Frequency_(cm-1)> (1)
3070.85827953462

>  <r_j_2nd_Lowest_Frequency_(cm-1)> (1)
199.180672437507

>  <i_j_Num_Negative_Frequencies> (1)
0

>  <r_j_Zero_Point_Energy_(kcal/mol)> (1)
31.7136196728144

>  <r_j_Entropy_(cal/mol/K)_298.15K_1.00E+00atm> (1)
66.6508957616445

>  <r_j_Enthalpy_(kcal/mol)_298.15K_1.00E+00atm> (1)
3.35811139356194

>  <r_j_Free_Energy_(kcal/mol)_298.15K_1.00E+00atm> (1)
-16.5138531777724

>  <r_j_Internal_Energy_(kcal/mol)_298.15K_1.00E+00atm> (1)
2.76562580473466

>  <r_j_Heat_Capacity_(cal/mol/K)_298.15K_1.00E+00atm> (1)
12.9017187264564

>  <r_j_ln(Q)_298.15K_1.00E+00atm> (1)
27.8721600814946

>  <r_j_Total_Internal_Energy_(au)_298.15K_1.00E+00atm> (1)
-208.010907876357

>  <r_j_Total_Enthalpy_(au)_298.15K_1.00E+00atm> (1)
-208.009963690464

>  <r_j_Total_Free_Energy_(au)_298.15K_1.00E+00atm> (1)
-208.041631681979

>  <r_lp_tautomer_probability> (1)
1

>  <r_epik_Ionization_Penalty> (1)
  0.0000

>  <r_epik_Ionization_Penalty_Charging> (1)
  0.0000

>  <r_epik_Ionization_Penalty_Neutral> (1)
  0.0000

>  <r_epik_State_Penalty> (1)
  0.0000

>  <r_epik_Charging_Adjusted_Penalty> (1)
0

>  <i_epik_Tot_Q> (1)
0

>  <i_epik_Tot_abs_Q> (1)
0

>  <s_lp_Force_Field> (1)
S-OPLS

>  <r_lp_Energy> (1)
0.42086

>  <b_lp_Chiralities_Consistent> (1)
1

>  <s_epik_Chemistry_Notes> (1)
This compound has an imine and may undergo hydrolysis.

$$$$
