12220_Cis-2-butene
                    3D
 Schrodinger Suite 2021-3.
 12 11  0  0  1  0            999 V2000
   -0.0347    0.0131    0.0000 C   0  0  0  0  0  0
    1.4773   -0.0180    0.0000 C   0  0  0  0  0  0
    2.2148   -1.1302    0.0000 C   0  0  0  0  0  0
    3.7268   -1.1613    0.0000 C   0  0  0  0  0  0
   -0.4150    1.0384    0.0000 H   0  0  0  0  0  0
   -0.4491   -0.4894    0.8819 H   0  0  0  0  0  0
   -0.4491   -0.4894   -0.8819 H   0  0  0  0  0  0
    1.9889    0.9457    0.0000 H   0  0  0  0  0  0
    1.7032   -2.0939    0.0000 H   0  0  0  0  0  0
    4.1071   -2.1866    0.0000 H   0  0  0  0  0  0
    4.1413   -0.6587    0.8819 H   0  0  0  0  0  0
    4.1413   -0.6588   -0.8819 H   0  0  0  0  0  0
  1  2  1  0  0  0
  1  5  1  0  0  0
  1  6  1  0  0  0
  1  7  1  0  0  0
  2  3  2  0  0  0
  2  8  1  0  0  0
  3  4  1  0  0  0
  3  9  1  0  0  0
  4 10  1  0  0  0
  4 11  1  0  0  0
  4 12  1  0  0  0
M  END
>  <i_m_Spin_multiplicity> (1)
1

>  <s_j_Task> (1)
Single Point

>  <s_j_QM_Method> (1)
DFT(b3lyp-d3)

>  <s_j_QM_Basis> (1)
cc-pvtz(-f)

>  <i_j_Number_of_canonical_orbitals> (1)
163

>  <i_j_Geometry_convergence_category> (1)
0

>  <r_j_Gas_Phase_Energy> (1)
-157.283176280873

>  <r_j_Final_Energy> (1)
-157.283176280873

>  <r_j_HOMO> (1)
-0.245226185405123

>  <r_j_LUMO> (1)
0.000849143318550068

>  <r_j_Polarizability> (1)
49.8025108404673

>  <r_j_QM_Dipole_(debye)> (1)
6.09345967955638e-05

>  <r_j_QM_Dipole_X_(debye)> (1)
-2.34903208829472e-05

>  <r_j_QM_Dipole_Y_(debye)> (1)
-4.00745281563414e-05

>  <r_j_QM_Dipole_Z_(debye)> (1)
-3.9436811540751e-05

>  <r_j_Lowest_Frequency_(cm-1)> (1)
-162.559858321409

>  <r_j_Highest_Frequency_(cm-1)> (1)
3082.84333986464

>  <r_j_2nd_Lowest_Frequency_(cm-1)> (1)
45.373339372971

>  <i_j_Num_Negative_Frequencies> (1)
1

>  <r_j_Zero_Point_Energy_(kcal/mol)> (1)
66.8065149100563

>  <r_j_Entropy_(cal/mol/K)_298.15K_1.00E+00atm> (1)
68.8858189644032

>  <r_j_Enthalpy_(kcal/mol)_298.15K_1.00E+00atm> (1)
3.76902342937223

>  <r_j_Free_Energy_(kcal/mol)_298.15K_1.00E+00atm> (1)
-16.7692834948646

>  <r_j_Internal_Energy_(kcal/mol)_298.15K_1.00E+00atm> (1)
3.17653784054496

>  <r_j_Heat_Capacity_(cal/mol/K)_298.15K_1.00E+00atm> (1)
16.4668838062138

>  <r_j_ln(Q)_298.15K_1.00E+00atm> (1)
28.3032765878012

>  <r_j_Total_Internal_Energy_(au)_298.15K_1.00E+00atm> (1)
-157.171651186677

>  <r_j_Total_Enthalpy_(au)_298.15K_1.00E+00atm> (1)
-157.170707000785

>  <r_j_Total_Free_Energy_(au)_298.15K_1.00E+00atm> (1)
-157.203436876438

>  <r_lp_tautomer_probability> (1)
1

>  <r_epik_Ionization_Penalty> (1)
  0.0000

>  <r_epik_Ionization_Penalty_Charging> (1)
  0.0000

>  <r_epik_Ionization_Penalty_Neutral> (1)
  0.0000

>  <r_epik_State_Penalty> (1)
  0.0000

>  <r_epik_Charging_Adjusted_Penalty> (1)
0

>  <i_epik_Tot_Q> (1)
0

>  <i_epik_Tot_abs_Q> (1)
0

>  <s_lp_Force_Field> (1)
S-OPLS

>  <r_lp_Energy> (1)
0.443897

>  <b_lp_Chiralities_Consistent> (1)
1

$$$$
