12232_Dimethyl Disulfide
                    3D
 Schrodinger Suite 2021-3.
 10  9  0  0  1  0            999 V2000
   -0.0977    1.7814    0.0232 C   0  0  0  0  0  0
    0.0178    0.0140   -0.4626 S   0  0  0  0  0  0
    2.0398   -0.4098   -0.2191 S   0  0  0  0  0  0
    2.1567   -0.8717    1.5547 C   0  0  0  0  0  0
   -1.1419    2.0700   -0.1296 H   0  0  0  0  0  0
    0.5463    2.3955   -0.6083 H   0  0  0  0  0  0
    0.1622    1.9189    1.0747 H   0  0  0  0  0  0
    3.2015   -1.1462    1.7285 H   0  0  0  0  0  0
    1.5143   -1.7267    1.7713 H   0  0  0  0  0  0
    1.8951   -0.0300    2.1990 H   0  0  0  0  0  0
  1  2  1  0  0  0
  1  5  1  0  0  0
  1  6  1  0  0  0
  1  7  1  0  0  0
  2  3  1  0  0  0
  3  4  1  0  0  0
  4  8  1  0  0  0
  4  9  1  0  0  0
  4 10  1  0  0  0
M  END
>  <i_m_Spin_multiplicity> (1)
1

>  <s_j_Task> (1)
Single Point

>  <s_j_QM_Method> (1)
DFT(b3lyp-d3)

>  <s_j_QM_Basis> (1)
cc-pvtz(-f)

>  <i_j_Number_of_canonical_orbitals> (1)
154

>  <i_j_Geometry_convergence_category> (1)
1

>  <r_j_Gas_Phase_Energy> (1)
-876.313970510129

>  <r_j_Final_Energy> (1)
-876.313970510129

>  <r_j_HOMO> (1)
-0.238896362258532

>  <r_j_LUMO> (1)
-0.0260090634179407

>  <r_j_Polarizability> (1)
65.194920442766

>  <r_j_QM_Dipole_(debye)> (1)
2.0289180157619

>  <r_j_QM_Dipole_X_(debye)> (1)
0.000827544136815069

>  <r_j_QM_Dipole_Y_(debye)> (1)
1.01520623048771

>  <r_j_QM_Dipole_Z_(debye)> (1)
1.7566627278544

>  <r_j_Lowest_Frequency_(cm-1)> (1)
110.117714510002

>  <r_j_Highest_Frequency_(cm-1)> (1)
3094.15477023343

>  <r_j_2nd_Lowest_Frequency_(cm-1)> (1)
216.273963042245

>  <i_j_Num_Negative_Frequencies> (1)
0

>  <r_j_Zero_Point_Energy_(kcal/mol)> (1)
48.3257606507906

>  <r_j_Entropy_(cal/mol/K)_298.15K_1.00E+00atm> (1)
78.0379863834305

>  <r_j_Enthalpy_(kcal/mol)_298.15K_1.00E+00atm> (1)
4.49668650990854

>  <r_j_Free_Energy_(kcal/mol)_298.15K_1.00E+00atm> (1)
-18.7703391303112

>  <r_j_Internal_Energy_(kcal/mol)_298.15K_1.00E+00atm> (1)
3.90420092108126

>  <r_j_Heat_Capacity_(cal/mol/K)_298.15K_1.00E+00atm> (1)
20.2351282235215

>  <r_j_ln(Q)_298.15K_1.00E+00atm> (1)
31.6806678242824

>  <r_j_Total_Internal_Energy_(au)_298.15K_1.00E+00atm> (1)
-876.230736767741

>  <r_j_Total_Enthalpy_(au)_298.15K_1.00E+00atm> (1)
-876.229792581849

>  <r_j_Total_Free_Energy_(au)_298.15K_1.00E+00atm> (1)
-876.266870947599

>  <r_lp_tautomer_probability> (1)
1

>  <r_epik_Ionization_Penalty> (1)
  0.0000

>  <r_epik_Ionization_Penalty_Charging> (1)
  0.0000

>  <r_epik_Ionization_Penalty_Neutral> (1)
  0.0000

>  <r_epik_State_Penalty> (1)
  0.0000

>  <r_epik_Charging_Adjusted_Penalty> (1)
0

>  <i_epik_Tot_Q> (1)
0

>  <i_epik_Tot_abs_Q> (1)
0

>  <s_lp_Force_Field> (1)
S-OPLS

>  <r_lp_Energy> (1)
-6.997852

>  <b_lp_Chiralities_Consistent> (1)
1

$$$$
