12259_Ethyl nitrate
                    3D
 Schrodinger Suite 2021-3.
 11 10  0  0  1  0            999 V2000
   -0.5093    1.4299    0.0274 C   0  0  0  0  0  0
   -0.0394    0.0007    0.2277 C   0  0  0  0  0  0
    1.3520   -0.0074   -0.1854 O   0  0  0  0  0  0
    1.9749   -1.2695   -0.0709 N   0  3  1  0  0  0
    3.1303   -1.2548   -0.4215 O   0  0  0  0  0  0
    1.3045   -2.1924    0.3511 O   0  5  0  0  0  0
   -1.5601    1.5095    0.3212 H   0  0  0  0  0  0
   -0.4177    1.7266   -1.0206 H   0  0  0  0  0  0
    0.0761    2.1216    0.6386 H   0  0  0  0  0  0
   -0.1064   -0.3162    1.2727 H   0  0  0  0  0  0
   -0.6006   -0.7110   -0.3851 H   0  0  0  0  0  0
  1  2  1  0  0  0
  1  7  1  0  0  0
  1  8  1  0  0  0
  1  9  1  0  0  0
  2  3  1  0  0  0
  2 10  1  0  0  0
  2 11  1  0  0  0
  3  4  1  0  0  0
  4  5  2  0  0  0
  4  6  1  0  0  0
M  END
>  <i_m_Spin_multiplicity> (1)
1

>  <s_j_Task> (1)
Single Point

>  <s_j_QM_Method> (1)
DFT(b3lyp-d3)

>  <s_j_QM_Basis> (1)
cc-pvtz(-f)

>  <i_j_Number_of_canonical_orbitals> (1)
183

>  <i_j_Geometry_convergence_category> (1)
3

>  <r_j_Gas_Phase_Energy> (1)
-359.646133429882

>  <r_j_Final_Energy> (1)
-359.646133429882

>  <r_j_HOMO> (1)
-0.326350732635891

>  <r_j_LUMO> (1)
-0.0780779360990587

>  <r_j_Polarizability> (1)
46.829696324403

>  <r_j_QM_Dipole_(debye)> (1)
3.44239717904275

>  <r_j_QM_Dipole_X_(debye)> (1)
-2.89822849227004

>  <r_j_QM_Dipole_Y_(debye)> (1)
1.80593002999956

>  <r_j_QM_Dipole_Z_(debye)> (1)
0.434725973023708

>  <r_j_Lowest_Frequency_(cm-1)> (1)
119.213845336886

>  <r_j_Highest_Frequency_(cm-1)> (1)
3085.80569178508

>  <r_j_2nd_Lowest_Frequency_(cm-1)> (1)
168.234819033689

>  <i_j_Num_Negative_Frequencies> (1)
0

>  <r_j_Zero_Point_Energy_(kcal/mol)> (1)
51.6927056371189

>  <r_j_Entropy_(cal/mol/K)_298.15K_1.00E+00atm> (1)
77.4604445422217

>  <r_j_Enthalpy_(kcal/mol)_298.15K_1.00E+00atm> (1)
4.3855666407553

>  <r_j_Free_Energy_(kcal/mol)_298.15K_1.00E+00atm> (1)
-18.7092648995081

>  <r_j_Internal_Energy_(kcal/mol)_298.15K_1.00E+00atm> (1)
3.79308105192802

>  <r_j_Heat_Capacity_(cal/mol/K)_298.15K_1.00E+00atm> (1)
20.4376613098323

>  <r_j_ln(Q)_298.15K_1.00E+00atm> (1)
31.5775864465158

>  <r_j_Total_Internal_Energy_(au)_298.15K_1.00E+00atm> (1)
-359.557711199873

>  <r_j_Total_Enthalpy_(au)_298.15K_1.00E+00atm> (1)
-359.556767013981

>  <r_j_Total_Free_Energy_(au)_298.15K_1.00E+00atm> (1)
-359.593570970964

>  <r_lp_tautomer_probability> (1)
1

>  <r_epik_Ionization_Penalty> (1)
  0.0000

>  <r_epik_Ionization_Penalty_Charging> (1)
  0.0000

>  <r_epik_Ionization_Penalty_Neutral> (1)
  0.0000

>  <r_epik_State_Penalty> (1)
  0.0000

>  <r_epik_Charging_Adjusted_Penalty> (1)
0

>  <i_epik_Tot_Q> (1)
0

>  <i_epik_Tot_abs_Q> (1)
2

>  <s_lp_Force_Field> (1)
S-OPLS

>  <r_lp_Energy> (1)
12.918906

>  <b_lp_Chiralities_Consistent> (1)
1

$$$$
