12260_2,4-dimethyl-2-pentene
                    3D
 Schrodinger Suite 2021-3.
 21 20  0  0  1  0            999 V2000
   -0.5303   -0.5814    1.1413 C   0  0  0  0  0  0
   -0.0736   -0.1280   -0.2583 C   0  0  0  0  0  0
   -0.5650   -1.1142   -1.3345 C   0  0  0  0  0  0
    1.4293   -0.0069   -0.3049 C   0  0  0  0  0  0
    2.1847    1.0758   -0.5394 C   0  0  0  0  0  0
    3.6924    0.9848   -0.5390 C   0  0  0  0  0  0
    1.6500    2.4587   -0.8209 C   0  0  0  0  0  0
   -0.2190    0.1337    1.9090 H   0  0  0  0  0  0
   -0.0941   -1.5553    1.3947 H   0  0  0  0  0  0
   -1.6206   -0.6828    1.1864 H   0  0  0  0  0  0
   -0.5318    0.8467   -0.4616 H   0  0  0  0  0  0
   -0.2793   -0.7797   -2.3366 H   0  0  0  0  0  0
   -1.6555   -1.2195   -1.3043 H   0  0  0  0  0  0
   -0.1296   -2.1085   -1.1770 H   0  0  0  0  0  0
    1.9490   -0.9490   -0.1138 H   0  0  0  0  0  0
    4.1058    1.2980   -1.5072 H   0  0  0  0  0  0
    4.0438   -0.0302   -0.3325 H   0  0  0  0  0  0
    4.1269    1.6554    0.2146 H   0  0  0  0  0  0
    2.0060    2.8173   -1.7957 H   0  0  0  0  0  0
    2.0205    3.1735   -0.0744 H   0  0  0  0  0  0
    0.5598    2.5109   -0.8225 H   0  0  0  0  0  0
  1  2  1  0  0  0
  1  8  1  0  0  0
  1  9  1  0  0  0
  1 10  1  0  0  0
  2  3  1  0  0  0
  2  4  1  0  0  0
  2 11  1  0  0  0
  3 12  1  0  0  0
  3 13  1  0  0  0
  3 14  1  0  0  0
  4  5  2  0  0  0
  4 15  1  0  0  0
  5  6  1  0  0  0
  5  7  1  0  0  0
  6 16  1  0  0  0
  6 17  1  0  0  0
  6 18  1  0  0  0
  7 19  1  0  0  0
  7 20  1  0  0  0
  7 21  1  0  0  0
M  END
>  <i_m_Spin_multiplicity> (1)
1

>  <s_j_Task> (1)
Single Point

>  <s_j_QM_Method> (1)
DFT(b3lyp-d3)

>  <s_j_QM_Basis> (1)
cc-pvtz(-f)

>  <i_j_Number_of_canonical_orbitals> (1)
284

>  <i_j_Geometry_convergence_category> (1)
0

>  <r_j_Gas_Phase_Energy> (1)
-275.28165372186

>  <r_j_Final_Energy> (1)
-275.28165372186

>  <r_j_HOMO> (1)
-0.229897472976954

>  <r_j_LUMO> (1)
0.0248928914741062

>  <r_j_Polarizability> (1)
88.2803594457308

>  <r_j_QM_Dipole_(debye)> (1)
0.347889519751286

>  <r_j_QM_Dipole_X_(debye)> (1)
0.0141821682038317

>  <r_j_QM_Dipole_Y_(debye)> (1)
0.340711344330915

>  <r_j_QM_Dipole_Z_(debye)> (1)
-0.0688604669025686

>  <r_j_Lowest_Frequency_(cm-1)> (1)
77.8840221245322

>  <r_j_Highest_Frequency_(cm-1)> (1)
3078.78349688759

>  <r_j_2nd_Lowest_Frequency_(cm-1)> (1)
144.275655152254

>  <i_j_Num_Negative_Frequencies> (1)
0

>  <r_j_Zero_Point_Energy_(kcal/mol)> (1)
120.698586483901

>  <r_j_Entropy_(cal/mol/K)_298.15K_1.00E+00atm> (1)
88.7638217378788

>  <r_j_Enthalpy_(kcal/mol)_298.15K_1.00E+00atm> (1)
6.11054490136412

>  <r_j_Free_Energy_(kcal/mol)_298.15K_1.00E+00atm> (1)
-20.3543885497844

>  <r_j_Internal_Energy_(kcal/mol)_298.15K_1.00E+00atm> (1)
5.51805931253684

>  <r_j_Heat_Capacity_(cal/mol/K)_298.15K_1.00E+00atm> (1)
33.2316731221294

>  <r_j_ln(Q)_298.15K_1.00E+00atm> (1)
34.3542339824206

>  <r_j_Total_Internal_Energy_(au)_298.15K_1.00E+00atm> (1)
-275.080514692362

>  <r_j_Total_Enthalpy_(au)_298.15K_1.00E+00atm> (1)
-275.07957050647

>  <r_j_Total_Free_Energy_(au)_298.15K_1.00E+00atm> (1)
-275.121745062738

>  <r_lp_tautomer_probability> (1)
1

>  <r_epik_Ionization_Penalty> (1)
  0.0000

>  <r_epik_Ionization_Penalty_Charging> (1)
  0.0000

>  <r_epik_Ionization_Penalty_Neutral> (1)
  0.0000

>  <r_epik_State_Penalty> (1)
  0.0000

>  <r_epik_Charging_Adjusted_Penalty> (1)
0

>  <i_epik_Tot_Q> (1)
0

>  <i_epik_Tot_abs_Q> (1)
0

>  <s_lp_Force_Field> (1)
S-OPLS

>  <r_lp_Energy> (1)
-1.57727

>  <b_lp_Chiralities_Consistent> (1)
1

$$$$
