12284_3-Methylglutaric acid
                    3D
 Schrodinger Suite 2021-3.
 18 17  0  0  1  0            999 V2000
   -0.6296   -0.8907    1.1782 C   0  0  0  0  0  0
   -0.0436   -0.0617    0.0266 C   0  0  0  0  0  0
    1.4965   -0.0925    0.0499 C   0  0  0  0  0  0
    2.2359   -1.4678   -0.1581 C   0  0  0  0  0  0
    3.4823   -1.4225    0.0416 O   0  0  0  0  0  0
    1.5430   -2.4563   -0.5216 O   0  5  0  0  0  0
   -0.5864    1.3797    0.0505 C   0  0  0  0  0  0
   -2.1293    1.6186   -0.1582 C   0  0  0  0  0  0
   -2.5011    2.8098    0.0375 O   0  0  0  0  0  0
   -2.8312    0.6351   -0.5179 O   0  5  0  0  0  0
   -0.3281   -0.4668    2.1509 H   0  0  0  0  0  0
   -0.2524   -1.9155    1.1114 H   0  0  0  0  0  0
   -1.7216   -0.8745    1.1132 H   0  0  0  0  0  0
   -0.3798   -0.5369   -0.9030 H   0  0  0  0  0  0
    1.8878    0.5848   -0.7278 H   0  0  0  0  0  0
    1.8639    0.3334    0.9980 H   0  0  0  0  0  0
   -0.3081    1.8673    0.9994 H   0  0  0  0  0  0
   -0.0776    1.9752   -0.7261 H   0  0  0  0  0  0
  1  2  1  0  0  0
  1 11  1  0  0  0
  1 12  1  0  0  0
  1 13  1  0  0  0
  2  3  1  0  0  0
  2  7  1  0  0  0
  2 14  1  0  0  0
  3  4  1  0  0  0
  3 15  1  0  0  0
  3 16  1  0  0  0
  4  5  2  0  0  0
  4  6  1  0  0  0
  7  8  1  0  0  0
  7 17  1  0  0  0
  7 18  1  0  0  0
  8  9  2  0  0  0
  8 10  1  0  0  0
M  END
>  <i_m_Spin_multiplicity> (1)
1

>  <s_j_Task> (1)
Single Point

>  <s_j_QM_Method> (1)
DFT(b3lyp-d3)

>  <s_j_QM_Basis> (1)
cc-pvtz(-f)

>  <i_j_Number_of_canonical_orbitals> (1)
300

>  <i_j_Geometry_convergence_category> (1)
0

>  <r_j_Gas_Phase_Energy> (1)
-534.582070358329

>  <r_j_Final_Energy> (1)
-534.582070358329

>  <r_j_HOMO> (1)
0.0773318881694639

>  <r_j_LUMO> (1)
0.287328827099496

>  <r_j_Polarizability> (1)
90.2481957966598

>  <r_j_QM_Dipole_(debye)> (1)
1.76903646455118

>  <r_j_QM_Dipole_X_(debye)> (1)
0.64558306731243

>  <r_j_QM_Dipole_Y_(debye)> (1)
0.913873564052345

>  <r_j_QM_Dipole_Z_(debye)> (1)
1.37023633911726

>  <r_j_Lowest_Frequency_(cm-1)> (1)
78.8946821435246

>  <r_j_Highest_Frequency_(cm-1)> (1)
3064.26940016588

>  <r_j_2nd_Lowest_Frequency_(cm-1)> (1)
81.4339359982701

>  <i_j_Num_Negative_Frequencies> (1)
0

>  <r_j_Zero_Point_Energy_(kcal/mol)> (1)
84.766877969039

>  <r_j_Entropy_(cal/mol/K)_298.15K_1.00E+00atm> (1)
97.4915284863515

>  <r_j_Enthalpy_(kcal/mol)_298.15K_1.00E+00atm> (1)
6.76611377698587

>  <r_j_Free_Energy_(kcal/mol)_298.15K_1.00E+00atm> (1)
-22.3009854412198

>  <r_j_Internal_Energy_(kcal/mol)_298.15K_1.00E+00atm> (1)
6.17362818815859

>  <r_j_Heat_Capacity_(cal/mol/K)_298.15K_1.00E+00atm> (1)
35.50787462048

>  <r_j_ln(Q)_298.15K_1.00E+00atm> (1)
37.6397094912652

>  <r_j_Total_Internal_Energy_(au)_298.15K_1.00E+00atm> (1)
-534.437147436038

>  <r_j_Total_Enthalpy_(au)_298.15K_1.00E+00atm> (1)
-534.436203250146

>  <r_j_Total_Free_Energy_(au)_298.15K_1.00E+00atm> (1)
-534.482524621548

>  <r_epik_Ionization_Penalty> (1)
  0.0149

>  <r_epik_Ionization_Penalty_Charging> (1)
  0.0149

>  <r_epik_Ionization_Penalty_Neutral> (1)
  0.0000

>  <r_epik_State_Penalty> (1)
  0.0116

>  <r_epik_Charging_Adjusted_Penalty> (1)
0.0264888

>  <i_epik_Tot_Q> (1)
-2

>  <i_epik_Tot_abs_Q> (1)
2

>  <s_lp_Force_Field> (1)
S-OPLS

>  <r_lp_Energy> (1)
7.84887

>  <b_lp_Chiralities_Consistent> (1)
1

$$$$
