12293_Propyl hexanoate
                    3D
 Schrodinger Suite 2021-3.
 29 28  0  0  1  0            999 V2000
   -2.6903    2.7317   -0.1999 C   0  0  0  0  0  0
   -2.0416    1.3452   -0.2421 C   0  0  0  0  0  0
   -0.5346    1.3808    0.0384 C   0  0  0  0  0  0
    0.1167   -0.0049   -0.0070 C   0  0  0  0  0  0
    1.6299    0.0433    0.2722 C   0  0  0  0  0  0
    2.2657   -1.3298    0.2370 C   0  0  0  0  0  0
    2.7889   -1.8924    1.1746 O   0  0  0  0  0  0
    2.1589   -1.8787   -0.9965 O   0  0  0  0  0  0
    2.6961   -3.2116   -1.1435 C   0  0  0  0  0  0
    2.4495   -3.6478   -2.5782 C   0  0  0  0  0  0
    2.9797   -5.0605   -2.8414 C   0  0  0  0  0  0
   -3.7646    2.6792   -0.4042 H   0  0  0  0  0  0
   -2.2412    3.3998   -0.9438 H   0  0  0  0  0  0
   -2.5598    3.1981    0.7834 H   0  0  0  0  0  0
   -2.5294    0.6874    0.4899 H   0  0  0  0  0  0
   -2.2144    0.8867   -1.2252 H   0  0  0  0  0  0
   -0.0436    2.0380   -0.6937 H   0  0  0  0  0  0
   -0.3580    1.8371    1.0228 H   0  0  0  0  0  0
   -0.3648   -0.6610    0.7303 H   0  0  0  0  0  0
   -0.0481   -0.4640   -0.9885 H   0  0  0  0  0  0
    2.1192    0.6717   -0.4820 H   0  0  0  0  0  0
    1.8330    0.4702    1.2575 H   0  0  0  0  0  0
    3.7642   -3.1974   -0.8982 H   0  0  0  0  0  0
    2.2065   -3.8773   -0.4236 H   0  0  0  0  0  0
    1.3731   -3.6006   -2.7810 H   0  0  0  0  0  0
    2.9283   -2.9289   -3.2534 H   0  0  0  0  0  0
    2.7972   -5.3613   -3.8771 H   0  0  0  0  0  0
    2.4938   -5.7955   -2.1900 H   0  0  0  0  0  0
    4.0590   -5.1204   -2.6621 H   0  0  0  0  0  0
  1  2  1  0  0  0
  1 12  1  0  0  0
  1 13  1  0  0  0
  1 14  1  0  0  0
  2  3  1  0  0  0
  2 15  1  0  0  0
  2 16  1  0  0  0
  3  4  1  0  0  0
  3 17  1  0  0  0
  3 18  1  0  0  0
  4  5  1  0  0  0
  4 19  1  0  0  0
  4 20  1  0  0  0
  5  6  1  0  0  0
  5 21  1  0  0  0
  5 22  1  0  0  0
  6  7  2  0  0  0
  6  8  1  0  0  0
  8  9  1  0  0  0
  9 10  1  0  0  0
  9 23  1  0  0  0
  9 24  1  0  0  0
 10 11  1  0  0  0
 10 25  1  0  0  0
 10 26  1  0  0  0
 11 27  1  0  0  0
 11 28  1  0  0  0
 11 29  1  0  0  0
M  END
>  <i_m_Spin_multiplicity> (1)
1

>  <s_j_Task> (1)
Single Point

>  <s_j_QM_Method> (1)
DFT(b3lyp-d3)

>  <s_j_QM_Basis> (1)
cc-pvtz(-f)

>  <i_j_Number_of_canonical_orbitals> (1)
413

>  <i_j_Geometry_convergence_category> (1)
3

>  <r_j_Gas_Phase_Energy> (1)
-504.475048899018

>  <r_j_Final_Energy> (1)
-504.475048899018

>  <r_j_HOMO> (1)
-0.279528012772793

>  <r_j_LUMO> (1)
-0.00132228377514419

>  <r_j_Polarizability> (1)
117.366567542459

>  <r_j_QM_Dipole_(debye)> (1)
2.21447767165947

>  <r_j_QM_Dipole_X_(debye)> (1)
-0.9703181688488

>  <r_j_QM_Dipole_Y_(debye)> (1)
0.229860712445152

>  <r_j_QM_Dipole_Z_(debye)> (1)
-1.9772602414337

>  <r_j_Lowest_Frequency_(cm-1)> (1)
52.2822387972331

>  <r_j_Highest_Frequency_(cm-1)> (1)
3067.27245045015

>  <r_j_2nd_Lowest_Frequency_(cm-1)> (1)
81.098280583364

>  <i_j_Num_Negative_Frequencies> (1)
0

>  <r_j_Zero_Point_Energy_(kcal/mol)> (1)
163.56485266505

>  <r_j_Entropy_(cal/mol/K)_298.15K_1.00E+00atm> (1)
111.639187328424

>  <r_j_Enthalpy_(kcal/mol)_298.15K_1.00E+00atm> (1)
8.73606089117939

>  <r_j_Free_Energy_(kcal/mol)_298.15K_1.00E+00atm> (1)
-24.5491628107901

>  <r_j_Internal_Energy_(kcal/mol)_298.15K_1.00E+00atm> (1)
8.14357530235212

>  <r_j_Heat_Capacity_(cal/mol/K)_298.15K_1.00E+00atm> (1)
47.5543753697249

>  <r_j_ln(Q)_298.15K_1.00E+00atm> (1)
41.4341939681285

>  <r_j_Total_Internal_Energy_(au)_298.15K_1.00E+00atm> (1)
-504.201414099583

>  <r_j_Total_Enthalpy_(au)_298.15K_1.00E+00atm> (1)
-504.20046991369

>  <r_j_Total_Free_Energy_(au)_298.15K_1.00E+00atm> (1)
-504.253513294378

>  <r_lp_tautomer_probability> (1)
1

>  <r_epik_Ionization_Penalty> (1)
  0.0000

>  <r_epik_Ionization_Penalty_Charging> (1)
  0.0000

>  <r_epik_Ionization_Penalty_Neutral> (1)
  0.0000

>  <r_epik_State_Penalty> (1)
  0.0000

>  <r_epik_Charging_Adjusted_Penalty> (1)
0

>  <i_epik_Tot_Q> (1)
0

>  <i_epik_Tot_abs_Q> (1)
0

>  <s_lp_Force_Field> (1)
S-OPLS

>  <r_lp_Energy> (1)
3.172107

>  <b_lp_Chiralities_Consistent> (1)
1

>  <s_epik_Chemistry_Notes> (1)
This compound has an ester and may undergo hydrolysis at high or low pH.

$$$$
