12309_Pentyne
                    3D
 Schrodinger Suite 2021-3.
 13 12  0  0  1  0            999 V2000
   -0.5280    1.4409    0.0001 C   0  0  0  0  0  0
   -0.0129    0.0003   -0.0001 C   0  0  0  0  0  0
    1.5294   -0.0622   -0.0002 C   0  0  0  0  0  0
    2.0462   -1.4307   -0.0004 C   0  0  0  0  0  0
    2.4432   -2.5716   -0.0006 C   0  0  0  0  0  0
   -1.6218    1.4717    0.0001 H   0  0  0  0  0  0
   -0.1785    1.9861   -0.8841 H   0  0  0  0  0  0
   -0.1785    1.9859    0.8845 H   0  0  0  0  0  0
   -0.3887   -0.5379    0.8775 H   0  0  0  0  0  0
   -0.3888   -0.5376   -0.8779 H   0  0  0  0  0  0
    1.9162    0.4733   -0.8779 H   0  0  0  0  0  0
    1.9163    0.4731    0.8776 H   0  0  0  0  0  0
    2.7963   -3.5762   -0.0007 H   0  0  0  0  0  0
  1  2  1  0  0  0
  1  6  1  0  0  0
  1  7  1  0  0  0
  1  8  1  0  0  0
  2  3  1  0  0  0
  2  9  1  0  0  0
  2 10  1  0  0  0
  3  4  1  0  0  0
  3 11  1  0  0  0
  3 12  1  0  0  0
  4  5  3  0  0  0
  5 13  1  0  0  0
M  END
>  <i_m_Spin_multiplicity> (1)
1

>  <s_j_Task> (1)
Single Point

>  <s_j_QM_Method> (1)
DFT(b3lyp-d3)

>  <s_j_QM_Basis> (1)
cc-pvtz(-f)

>  <i_j_Number_of_canonical_orbitals> (1)
185

>  <i_j_Geometry_convergence_category> (1)
0

>  <r_j_Gas_Phase_Energy> (1)
-195.359202754048

>  <r_j_Final_Energy> (1)
-195.359202754048

>  <r_j_HOMO> (1)
-0.278511874389332

>  <r_j_LUMO> (1)
0.0249352741584268

>  <r_j_Polarizability> (1)
57.8896447398047

>  <r_j_QM_Dipole_(debye)> (1)
0.873198214072791

>  <r_j_QM_Dipole_X_(debye)> (1)
-0.491213816223017

>  <r_j_QM_Dipole_Y_(debye)> (1)
0.721930802830031

>  <r_j_QM_Dipole_Z_(debye)> (1)
0.000154067254801191

>  <r_j_Lowest_Frequency_(cm-1)> (1)
139.744765429033

>  <r_j_Highest_Frequency_(cm-1)> (1)
3425.25343189021

>  <r_j_2nd_Lowest_Frequency_(cm-1)> (1)
194.349498927407

>  <i_j_Num_Negative_Frequencies> (1)
0

>  <r_j_Zero_Point_Energy_(kcal/mol)> (1)
70.8093792480427

>  <r_j_Entropy_(cal/mol/K)_298.15K_1.00E+00atm> (1)
74.8078173266418

>  <r_j_Enthalpy_(kcal/mol)_298.15K_1.00E+00atm> (1)
4.34403924097258

>  <r_j_Free_Energy_(kcal/mol)_298.15K_1.00E+00atm> (1)
-17.9599114949657

>  <r_j_Internal_Energy_(kcal/mol)_298.15K_1.00E+00atm> (1)
3.75155365214531

>  <r_j_Heat_Capacity_(cal/mol/K)_298.15K_1.00E+00atm> (1)
21.2924315420719

>  <r_j_ln(Q)_298.15K_1.00E+00atm> (1)
30.312824199681

>  <r_j_Total_Internal_Energy_(au)_298.15K_1.00E+00atm> (1)
-195.240382343417

>  <r_j_Total_Enthalpy_(au)_298.15K_1.00E+00atm> (1)
-195.239438157524

>  <r_j_Total_Free_Energy_(au)_298.15K_1.00E+00atm> (1)
-195.274981765712

>  <r_lp_tautomer_probability> (1)
1

>  <r_epik_Ionization_Penalty> (1)
  0.0000

>  <r_epik_Ionization_Penalty_Charging> (1)
  0.0000

>  <r_epik_Ionization_Penalty_Neutral> (1)
  0.0000

>  <r_epik_State_Penalty> (1)
  0.0000

>  <r_epik_Charging_Adjusted_Penalty> (1)
0

>  <i_epik_Tot_Q> (1)
0

>  <i_epik_Tot_abs_Q> (1)
0

>  <s_lp_Force_Field> (1)
S-OPLS

>  <r_lp_Energy> (1)
0.442814

>  <b_lp_Chiralities_Consistent> (1)
1

$$$$
