12304198_Pimarinal
                    3D
 Schrodinger Suite 2021-3.
 51 53  0  0  1  0            999 V2000
   -0.0260   -0.1494   -0.1661 C   0  0  0  0  0  0
    1.5203   -0.0897   -0.0923 C   0  0  0  0  0  0
    2.1316   -1.5134    0.0083 C   0  0  0  0  0  0
    1.9113   -2.1414    1.3866 C   0  0  0  0  0  0
    2.5554   -1.3040    2.5115 C   0  0  0  0  0  0
    2.4379    0.1903    2.2546 C   0  0  0  0  0  0
    1.9433    0.7052    1.1223 C   0  0  0  0  0  0
    3.0008    1.0917    3.3315 C   0  0  0  0  0  0
    2.6503    0.6713    4.7703 C   0  0  0  0  0  0
    2.7767   -0.8460    5.0388 C   0  0  0  0  0  0
    2.0027   -1.6558    3.9409 C   0  0  0  0  0  0
    2.1231   -3.1675    4.2413 C   0  0  0  0  0  0
    3.5643   -3.6496    4.4043 C   0  0  0  0  0  0
    4.2454   -2.8922    5.5459 C   0  0  0  0  0  0
    4.2366   -1.3573    5.3711 C   0  0  0  0  0  0
    4.7081   -0.7102    6.6990 C   0  0  0  0  0  0
    5.2922   -0.9432    4.3491 C   0  0  0  0  0  0
    5.9303   -1.6969    3.6441 O   0  0  0  0  0  0
    0.5013   -1.2886    4.0296 C   0  0  0  0  0  0
    2.0283    0.5436   -1.3779 C   0  0  0  0  0  0
    2.9743    1.4748   -1.5001 C   0  0  0  0  0  0
   -0.4473    0.8593   -0.2255 H   0  0  0  0  0  0
   -0.4455   -0.6341    0.7193 H   0  0  0  0  0  0
   -0.3549   -0.7057   -1.0521 H   0  0  0  0  0  0
    1.7117   -2.1549   -0.7764 H   0  0  0  0  0  0
    3.2077   -1.4355   -0.1852 H   0  0  0  0  0  0
    0.8374   -2.2557    1.5638 H   0  0  0  0  0  0
    2.3329   -3.1519    1.3958 H   0  0  0  0  0  0
    3.6273   -1.5395    2.5104 H   0  0  0  0  0  0
    1.8571    1.7881    1.0338 H   0  0  0  0  0  0
    4.0926    1.0986    3.2117 H   0  0  0  0  0  0
    2.6816    2.1262    3.1612 H   0  0  0  0  0  0
    3.2588    1.2453    5.4763 H   0  0  0  0  0  0
    1.6146    0.9610    4.9747 H   0  0  0  0  0  0
    2.2383   -1.0440    5.9770 H   0  0  0  0  0  0
    1.5782   -3.3671    5.1760 H   0  0  0  0  0  0
    1.6055   -3.7410    3.4656 H   0  0  0  0  0  0
    3.5760   -4.7247    4.6189 H   0  0  0  0  0  0
    4.1337   -3.5078    3.4807 H   0  0  0  0  0  0
    3.7263   -3.1265    6.4856 H   0  0  0  0  0  0
    5.2820   -3.2257    5.6617 H   0  0  0  0  0  0
    3.9750   -0.8985    7.4896 H   0  0  0  0  0  0
    4.8438    0.3722    6.6176 H   0  0  0  0  0  0
    5.6637   -1.1404    7.0169 H   0  0  0  0  0  0
    5.5079    0.1482    4.3294 H   0  0  0  0  0  0
    0.1590   -1.3114    5.0702 H   0  0  0  0  0  0
   -0.1091   -2.0073    3.4755 H   0  0  0  0  0  0
    0.2880   -0.2982    3.6207 H   0  0  0  0  0  0
    1.5679    0.1433   -2.2829 H   0  0  0  0  0  0
    3.4832    1.8994   -0.6398 H   0  0  0  0  0  0
    3.2827    1.8376   -2.4761 H   0  0  0  0  0  0
  1  2  1  0  0  0
  1 22  1  0  0  0
  1 23  1  0  0  0
  1 24  1  0  0  0
  2  7  1  0  0  0
  2  3  1  0  0  0
  2 20  1  0  0  0
  3  4  1  0  0  0
  3 25  1  0  0  0
  3 26  1  0  0  0
  4  5  1  0  0  0
  4 27  1  0  0  0
  4 28  1  0  0  0
  5 11  1  0  0  0
  5  6  1  0  0  0
  5 29  1  0  0  0
  6  7  2  0  0  0
  6  8  1  0  0  0
  7 30  1  0  0  0
  8  9  1  0  0  0
  8 31  1  0  0  0
  8 32  1  0  0  0
  9 10  1  0  0  0
  9 33  1  0  0  0
  9 34  1  0  0  0
 10 15  1  0  0  0
 10 11  1  0  0  0
 10 35  1  0  0  0
 11 12  1  0  0  0
 11 19  1  0  0  0
 12 13  1  0  0  0
 12 36  1  0  0  0
 12 37  1  0  0  0
 13 14  1  0  0  0
 13 38  1  0  0  0
 13 39  1  0  0  0
 14 15  1  0  0  0
 14 40  1  0  0  0
 14 41  1  0  0  0
 15 16  1  0  0  0
 15 17  1  0  0  0
 16 42  1  0  0  0
 16 43  1  0  0  0
 16 44  1  0  0  0
 17 18  2  0  0  0
 17 45  1  0  0  0
 19 46  1  0  0  0
 19 47  1  0  0  0
 19 48  1  0  0  0
 20 21  2  0  0  0
 20 49  1  0  0  0
 21 50  1  0  0  0
 21 51  1  0  0  0
M  END
>  <i_m_Spin_multiplicity> (1)
1

>  <s_j_Task> (1)
Single Point

>  <s_j_QM_Method> (1)
DFT(b3lyp-d3)

>  <s_j_QM_Basis> (1)
cc-pvtz(-f)

>  <i_j_Number_of_canonical_orbitals> (1)
740

>  <i_j_Geometry_convergence_category> (1)
0

>  <r_j_Gas_Phase_Energy> (1)
-855.720653048862

>  <r_j_Final_Energy> (1)
-855.720653048862

>  <r_j_HOMO> (1)
-0.246417092027495

>  <r_j_LUMO> (1)
-0.065374914780201

>  <r_j_Polarizability> (1)
224.083766645644

>  <r_j_QM_Dipole_(debye)> (1)
2.60623546329387

>  <r_j_QM_Dipole_X_(debye)> (1)
-1.59296987662025

>  <r_j_QM_Dipole_Y_(debye)> (1)
0.552212426619042

>  <r_j_QM_Dipole_Z_(debye)> (1)
1.98745357133156

>  <r_j_Lowest_Frequency_(cm-1)> (1)
51.7367740197862

>  <r_j_Highest_Frequency_(cm-1)> (1)
3174.50514565498

>  <r_j_2nd_Lowest_Frequency_(cm-1)> (1)
83.3282402840185

>  <i_j_Num_Negative_Frequencies> (1)
0

>  <r_j_Zero_Point_Energy_(kcal/mol)> (1)
287.859761750665

>  <r_j_Entropy_(cal/mol/K)_298.15K_1.00E+00atm> (1)
134.764457081843

>  <r_j_Enthalpy_(kcal/mol)_298.15K_1.00E+00atm> (1)
12.6787370253771

>  <r_j_Free_Energy_(kcal/mol)_298.15K_1.00E+00atm> (1)
-27.5012858535744

>  <r_j_Internal_Energy_(kcal/mol)_298.15K_1.00E+00atm> (1)
12.0862514365498

>  <r_j_Heat_Capacity_(cal/mol/K)_298.15K_1.00E+00atm> (1)
82.671507353268

>  <r_j_ln(Q)_298.15K_1.00E+00atm> (1)
46.416801306524

>  <r_j_Total_Internal_Energy_(au)_298.15K_1.00E+00atm> (1)
-855.242658647938

>  <r_j_Total_Enthalpy_(au)_298.15K_1.00E+00atm> (1)
-855.241714462046

>  <r_j_Total_Free_Energy_(au)_298.15K_1.00E+00atm> (1)
-855.305745404685

>  <r_lp_tautomer_probability> (1)
1

>  <r_epik_Ionization_Penalty> (1)
  0.0000

>  <r_epik_Ionization_Penalty_Charging> (1)
  0.0000

>  <r_epik_Ionization_Penalty_Neutral> (1)
  0.0000

>  <r_epik_State_Penalty> (1)
  0.0000

>  <r_epik_Charging_Adjusted_Penalty> (1)
0

>  <i_epik_Tot_Q> (1)
0

>  <i_epik_Tot_abs_Q> (1)
0

>  <s_lp_Force_Field> (1)
S-OPLS

>  <r_lp_Energy> (1)
33.8153

>  <b_lp_Chiralities_Consistent> (1)
1

$$$$
