12330_Dimethylhexene
                    3D
 Schrodinger Suite 2021-3.
 24 23  0  0  1  0            999 V2000
   -2.1259    1.4750   -0.0002 C   0  0  0  0  0  0
   -0.5946    1.4484    0.0001 C   0  0  0  0  0  0
   -0.0190    0.0285    0.0000 C   0  0  0  0  0  0
    1.5144   -0.0071    0.0002 C   0  0  0  0  0  0
    2.0801   -1.4069    0.0002 C   0  0  0  0  0  0
    3.3853   -1.7093    0.0000 C   0  0  0  0  0  0
    3.8483   -3.1570    0.0000 C   0  0  0  0  0  0
    4.4315   -0.6131   -0.0002 C   0  0  0  0  0  0
   -2.5110    2.5000   -0.0001 H   0  0  0  0  0  0
   -2.5290    0.9670    0.8835 H   0  0  0  0  0  0
   -2.5287    0.9672   -0.8842 H   0  0  0  0  0  0
   -0.2167    1.9912   -0.8773 H   0  0  0  0  0  0
   -0.2170    1.9910    0.8777 H   0  0  0  0  0  0
   -0.3936   -0.5172    0.8777 H   0  0  0  0  0  0
   -0.3934   -0.5171   -0.8779 H   0  0  0  0  0  0
    1.8881    0.5501   -0.8733 H   0  0  0  0  0  0
    1.8878    0.5500    0.8739 H   0  0  0  0  0  0
    1.3551   -2.2223    0.0002 H   0  0  0  0  0  0
    4.9391   -3.2365   -0.0003 H   0  0  0  0  0  0
    3.4813   -3.6961   -0.8810 H   0  0  0  0  0  0
    3.4817   -3.6959    0.8813 H   0  0  0  0  0  0
    5.4484   -1.0142   -0.0004 H   0  0  0  0  0  0
    4.3307    0.0371    0.8784 H   0  0  0  0  0  0
    4.3303    0.0371   -0.8787 H   0  0  0  0  0  0
  1  2  1  0  0  0
  1  9  1  0  0  0
  1 10  1  0  0  0
  1 11  1  0  0  0
  2  3  1  0  0  0
  2 12  1  0  0  0
  2 13  1  0  0  0
  3  4  1  0  0  0
  3 14  1  0  0  0
  3 15  1  0  0  0
  4  5  1  0  0  0
  4 16  1  0  0  0
  4 17  1  0  0  0
  5  6  2  0  0  0
  5 18  1  0  0  0
  6  7  1  0  0  0
  6  8  1  0  0  0
  7 19  1  0  0  0
  7 20  1  0  0  0
  7 21  1  0  0  0
  8 22  1  0  0  0
  8 23  1  0  0  0
  8 24  1  0  0  0
M  END
>  <i_m_Spin_multiplicity> (1)
1

>  <s_j_Task> (1)
Single Point

>  <s_j_QM_Method> (1)
DFT(b3lyp-d3)

>  <s_j_QM_Basis> (1)
cc-pvtz(-f)

>  <i_j_Number_of_canonical_orbitals> (1)
325

>  <i_j_Geometry_convergence_category> (1)
0

>  <r_j_Gas_Phase_Energy> (1)
-314.603094804958

>  <r_j_Final_Energy> (1)
-314.603094804958

>  <r_j_HOMO> (1)
-0.235466421928856

>  <r_j_LUMO> (1)
0.00255348886295517

>  <r_j_Polarizability> (1)
99.5562388611191

>  <r_j_QM_Dipole_(debye)> (1)
0.262029352614771

>  <r_j_QM_Dipole_X_(debye)> (1)
0.24021594847292

>  <r_j_QM_Dipole_Y_(debye)> (1)
0.104669382297372

>  <r_j_QM_Dipole_Z_(debye)> (1)
-1.18514914451921e-05

>  <r_j_Lowest_Frequency_(cm-1)> (1)
-110.731157518103

>  <r_j_Highest_Frequency_(cm-1)> (1)
3071.15205985193

>  <r_j_2nd_Lowest_Frequency_(cm-1)> (1)
76.9366382822805

>  <i_j_Num_Negative_Frequencies> (1)
1

>  <r_j_Zero_Point_Energy_(kcal/mol)> (1)
138.084978553874

>  <r_j_Entropy_(cal/mol/K)_298.15K_1.00E+00atm> (1)
95.11670770457

>  <r_j_Enthalpy_(kcal/mol)_298.15K_1.00E+00atm> (1)
6.71528465996918

>  <r_j_Free_Energy_(kcal/mol)_298.15K_1.00E+00atm> (1)
-21.6437617421484

>  <r_j_Internal_Energy_(kcal/mol)_298.15K_1.00E+00atm> (1)
6.12279907114191

>  <r_j_Heat_Capacity_(cal/mol/K)_298.15K_1.00E+00atm> (1)
35.9261579186254

>  <r_j_ln(Q)_298.15K_1.00E+00atm> (1)
36.5304442003198

>  <r_j_Total_Internal_Energy_(au)_298.15K_1.00E+00atm> (1)
-314.373285081728

>  <r_j_Total_Enthalpy_(au)_298.15K_1.00E+00atm> (1)
-314.372340895836

>  <r_j_Total_Free_Energy_(au)_298.15K_1.00E+00atm> (1)
-314.417533913245

>  <r_lp_tautomer_probability> (1)
1

>  <r_epik_Ionization_Penalty> (1)
  0.0000

>  <r_epik_Ionization_Penalty_Charging> (1)
  0.0000

>  <r_epik_Ionization_Penalty_Neutral> (1)
  0.0000

>  <r_epik_State_Penalty> (1)
  0.0000

>  <r_epik_Charging_Adjusted_Penalty> (1)
0

>  <i_epik_Tot_Q> (1)
0

>  <i_epik_Tot_abs_Q> (1)
0

>  <s_lp_Force_Field> (1)
S-OPLS

>  <r_lp_Energy> (1)
2.184352

>  <b_lp_Chiralities_Consistent> (1)
1

$$$$
