12348_Amyl acetate
                    3D
 Schrodinger Suite 2021-3.
 23 22  0  0  1  0            999 V2000
   -2.0671    1.5672    0.0006 C   0  0  0  0  0  0
   -0.5413    1.4406   -0.0002 C   0  0  0  0  0  0
   -0.0623   -0.0159    0.0001 C   0  0  0  0  0  0
    1.4652   -0.1409   -0.0003 C   0  0  0  0  0  0
    1.9236   -1.5889   -0.0005 C   0  0  0  0  0  0
    3.3695   -1.5858    0.0000 O   0  0  0  0  0  0
    3.9591   -2.8016    0.0000 C   0  0  0  0  0  0
    3.3453   -3.8472   -0.0006 O   0  0  0  0  0  0
    5.4667   -2.6895    0.0007 C   0  0  0  0  0  0
   -2.3826    2.6155    0.0004 H   0  0  0  0  0  0
   -2.5021    1.0877    0.8851 H   0  0  0  0  0  0
   -2.5031    1.0870   -0.8829 H   0  0  0  0  0  0
   -0.1283    1.9554   -0.8782 H   0  0  0  0  0  0
   -0.1274    1.9560    0.8770 H   0  0  0  0  0  0
   -0.4739   -0.5328    0.8787 H   0  0  0  0  0  0
   -0.4746   -0.5334   -0.8778 H   0  0  0  0  0  0
    1.8831    0.3643   -0.8801 H   0  0  0  0  0  0
    1.8837    0.3642    0.8792 H   0  0  0  0  0  0
    1.5666   -2.1329    0.8813 H   0  0  0  0  0  0
    1.5672   -2.1326   -0.8827 H   0  0  0  0  0  0
    5.8006   -1.6518    0.0011 H   0  0  0  0  0  0
    5.8573   -3.2064   -0.8801 H   0  0  0  0  0  0
    5.8565   -3.2068    0.8817 H   0  0  0  0  0  0
  1  2  1  0  0  0
  1 10  1  0  0  0
  1 11  1  0  0  0
  1 12  1  0  0  0
  2  3  1  0  0  0
  2 13  1  0  0  0
  2 14  1  0  0  0
  3  4  1  0  0  0
  3 15  1  0  0  0
  3 16  1  0  0  0
  4  5  1  0  0  0
  4 17  1  0  0  0
  4 18  1  0  0  0
  5  6  1  0  0  0
  5 19  1  0  0  0
  5 20  1  0  0  0
  6  7  1  0  0  0
  7  8  2  0  0  0
  7  9  1  0  0  0
  9 21  1  0  0  0
  9 22  1  0  0  0
  9 23  1  0  0  0
M  END
>  <i_m_Spin_multiplicity> (1)
1

>  <s_j_Task> (1)
Single Point

>  <s_j_QM_Method> (1)
DFT(b3lyp-d3)

>  <s_j_QM_Basis> (1)
cc-pvtz(-f)

>  <i_j_Number_of_canonical_orbitals> (1)
332

>  <i_j_Geometry_convergence_category> (1)
0

>  <r_j_Gas_Phase_Energy> (1)
-425.815879379905

>  <r_j_Final_Energy> (1)
-425.815879379905

>  <r_j_HOMO> (1)
-0.291090350677817

>  <r_j_LUMO> (1)
-0.00975871508449927

>  <r_j_Polarizability> (1)
93.0650942184608

>  <r_j_QM_Dipole_(debye)> (1)
2.09144215585976

>  <r_j_QM_Dipole_X_(debye)> (1)
0.161298937089623

>  <r_j_QM_Dipole_Y_(debye)> (1)
2.08521270754548

>  <r_j_QM_Dipole_Z_(debye)> (1)
0.000953148435911032

>  <r_j_Lowest_Frequency_(cm-1)> (1)
60.9337889068932

>  <r_j_Highest_Frequency_(cm-1)> (1)
3110.27839781815

>  <r_j_2nd_Lowest_Frequency_(cm-1)> (1)
95.4946051249987

>  <i_j_Num_Negative_Frequencies> (1)
0

>  <r_j_Zero_Point_Energy_(kcal/mol)> (1)
127.554041188699

>  <r_j_Entropy_(cal/mol/K)_298.15K_1.00E+00atm> (1)
100.105511849927

>  <r_j_Enthalpy_(kcal/mol)_298.15K_1.00E+00atm> (1)
7.27387614860788

>  <r_j_Free_Energy_(kcal/mol)_298.15K_1.00E+00atm> (1)
-22.5725822094477

>  <r_j_Internal_Energy_(kcal/mol)_298.15K_1.00E+00atm> (1)
6.6813905597806

>  <r_j_Heat_Capacity_(cal/mol/K)_298.15K_1.00E+00atm> (1)
38.2108476350959

>  <r_j_ln(Q)_298.15K_1.00E+00atm> (1)
38.0981118108313

>  <r_j_Total_Internal_Energy_(au)_298.15K_1.00E+00atm> (1)
-425.601961601503

>  <r_j_Total_Enthalpy_(au)_298.15K_1.00E+00atm> (1)
-425.601017415611

>  <r_j_Total_Free_Energy_(au)_298.15K_1.00E+00atm> (1)
-425.648580774867

>  <r_lp_tautomer_probability> (1)
1

>  <r_epik_Ionization_Penalty> (1)
  0.0000

>  <r_epik_Ionization_Penalty_Charging> (1)
  0.0000

>  <r_epik_Ionization_Penalty_Neutral> (1)
  0.0000

>  <r_epik_State_Penalty> (1)
  0.0000

>  <r_epik_Charging_Adjusted_Penalty> (1)
0

>  <i_epik_Tot_Q> (1)
0

>  <i_epik_Tot_abs_Q> (1)
0

>  <s_lp_Force_Field> (1)
S-OPLS

>  <r_lp_Energy> (1)
1.405469

>  <b_lp_Chiralities_Consistent> (1)
1

>  <s_epik_Chemistry_Notes> (1)
This compound has an ester and may undergo hydrolysis at high or low pH.

$$$$
