123522_1,1,3,3-Tetramethylcyclopentane
                    3D
 Schrodinger Suite 2021-3.
 27 27  0  0  1  0            999 V2000
   -0.0703    0.0099    0.0042 C   0  0  0  0  0  0
    1.4705    0.0157    0.0207 C   0  0  0  0  0  0
    2.0119    0.6252   -1.2997 C   0  0  0  0  0  0
    2.0505   -0.5533   -2.2784 C   0  0  0  0  0  0
    2.5752   -1.7435   -1.4325 C   0  0  0  0  0  0
    2.0129   -1.4514   -0.0027 C   0  0  0  0  0  0
    2.0886   -3.0912   -1.9814 C   0  0  0  0  0  0
    4.1159   -1.7333   -1.4075 C   0  0  0  0  0  0
    1.9594    0.7935    1.2496 C   0  0  0  0  0  0
   -0.4674    1.0312   -0.0276 H   0  0  0  0  0  0
   -0.4672   -0.4780    0.9018 H   0  0  0  0  0  0
   -0.4627   -0.5298   -0.8642 H   0  0  0  0  0  0
    1.4012    1.4642   -1.6515 H   0  0  0  0  0  0
    3.0256    1.0143   -1.1421 H   0  0  0  0  0  0
    1.0383   -0.7723   -2.6410 H   0  0  0  0  0  0
    2.6705   -0.3658   -3.1620 H   0  0  0  0  0  0
    2.7963   -1.5906    0.7508 H   0  0  0  0  0  0
    1.2143   -2.1566    0.2540 H   0  0  0  0  0  0
    2.4427   -3.9230   -1.3615 H   0  0  0  0  0  0
    2.4543   -3.2574   -3.0015 H   0  0  0  0  0  0
    0.9938   -3.1334   -2.0057 H   0  0  0  0  0  0
    4.4996   -2.5303   -0.7605 H   0  0  0  0  0  0
    4.5078   -0.7839   -1.0272 H   0  0  0  0  0  0
    4.5268   -1.8877   -2.4120 H   0  0  0  0  0  0
    3.0543    0.8089    1.2947 H   0  0  0  0  0  0
    1.5917    0.3406    2.1777 H   0  0  0  0  0  0
    1.6093    1.8321    1.2246 H   0  0  0  0  0  0
  1  2  1  0  0  0
  1 10  1  0  0  0
  1 11  1  0  0  0
  1 12  1  0  0  0
  2  6  1  0  0  0
  2  3  1  0  0  0
  2  9  1  0  0  0
  3  4  1  0  0  0
  3 13  1  0  0  0
  3 14  1  0  0  0
  4  5  1  0  0  0
  4 15  1  0  0  0
  4 16  1  0  0  0
  5  6  1  0  0  0
  5  7  1  0  0  0
  5  8  1  0  0  0
  6 17  1  0  0  0
  6 18  1  0  0  0
  7 19  1  0  0  0
  7 20  1  0  0  0
  7 21  1  0  0  0
  8 22  1  0  0  0
  8 23  1  0  0  0
  8 24  1  0  0  0
  9 25  1  0  0  0
  9 26  1  0  0  0
  9 27  1  0  0  0
M  END
>  <i_m_Spin_multiplicity> (1)
1

>  <s_j_Task> (1)
Single Point

>  <s_j_QM_Method> (1)
DFT(b3lyp-d3)

>  <s_j_QM_Basis> (1)
cc-pvtz(-f)

>  <i_j_Number_of_canonical_orbitals> (1)
365

>  <i_j_Geometry_convergence_category> (1)
3

>  <r_j_Gas_Phase_Energy> (1)
-353.956955198901

>  <r_j_Final_Energy> (1)
-353.956955198901

>  <r_j_HOMO> (1)
-0.302597398158398

>  <r_j_LUMO> (1)
0.0241791796318866

>  <r_j_Polarizability> (1)
104.915756807955

>  <r_j_QM_Dipole_(debye)> (1)
0.0318102225205045

>  <r_j_QM_Dipole_X_(debye)> (1)
0.00064654091288698

>  <r_j_QM_Dipole_Y_(debye)> (1)
0.0198937303101648

>  <r_j_QM_Dipole_Z_(debye)> (1)
-0.0248135393686271

>  <r_j_Lowest_Frequency_(cm-1)> (1)
64.2338076899762

>  <r_j_Highest_Frequency_(cm-1)> (1)
3045.6369067552

>  <r_j_2nd_Lowest_Frequency_(cm-1)> (1)
203.911054914964

>  <i_j_Num_Negative_Frequencies> (1)
0

>  <r_j_Zero_Point_Energy_(kcal/mol)> (1)
158.055795241845

>  <r_j_Entropy_(cal/mol/K)_298.15K_1.00E+00atm> (1)
91.8755009115504

>  <r_j_Enthalpy_(kcal/mol)_298.15K_1.00E+00atm> (1)
6.62304009009805

>  <r_j_Free_Energy_(kcal/mol)_298.15K_1.00E+00atm> (1)
-20.7696405066807

>  <r_j_Internal_Energy_(kcal/mol)_298.15K_1.00E+00atm> (1)
6.03055450127078

>  <r_j_Heat_Capacity_(cal/mol/K)_298.15K_1.00E+00atm> (1)
40.2573445022028

>  <r_j_ln(Q)_298.15K_1.00E+00atm> (1)
35.0550982139341

>  <r_j_Total_Internal_Energy_(au)_298.15K_1.00E+00atm> (1)
-353.69546695436

>  <r_j_Total_Enthalpy_(au)_298.15K_1.00E+00atm> (1)
-353.694522768468

>  <r_j_Total_Free_Energy_(au)_298.15K_1.00E+00atm> (1)
-353.738175783931

>  <r_lp_tautomer_probability> (1)
1

>  <r_epik_Ionization_Penalty> (1)
  0.0000

>  <r_epik_Ionization_Penalty_Charging> (1)
  0.0000

>  <r_epik_Ionization_Penalty_Neutral> (1)
  0.0000

>  <r_epik_State_Penalty> (1)
  0.0000

>  <r_epik_Charging_Adjusted_Penalty> (1)
0

>  <i_epik_Tot_Q> (1)
0

>  <i_epik_Tot_abs_Q> (1)
0

>  <s_lp_Force_Field> (1)
S-OPLS

>  <r_lp_Energy> (1)
5.6414

>  <b_lp_Chiralities_Consistent> (1)
1

$$$$
