12388_N-tridecane
                    3D
 Schrodinger Suite 2021-3.
 41 40  0  0  1  0            999 V2000
   -4.8182    4.3889   -0.0001 C   0  0  0  0  0  0
   -4.2387    2.9713   -0.0003 C   0  0  0  0  0  0
   -2.7050    2.9473    0.0000 C   0  0  0  0  0  0
   -2.1200    1.5303   -0.0001 C   0  0  0  0  0  0
   -0.5871    1.4966    0.0001 C   0  0  0  0  0  0
   -0.0147    0.0742    0.0001 C   0  0  0  0  0  0
    1.5177    0.0250    0.0002 C   0  0  0  0  0  0
    2.0749   -1.4034    0.0002 C   0  0  0  0  0  0
    3.6066   -1.4689    0.0002 C   0  0  0  0  0  0
    4.1494   -2.9029    0.0001 C   0  0  0  0  0  0
    5.6804   -2.9822    0.0000 C   0  0  0  0  0  0
    6.2143   -4.4201    0.0000 C   0  0  0  0  0  0
    7.7440   -4.4938   -0.0004 C   0  0  0  0  0  0
   -5.9133    4.3769   -0.0003 H   0  0  0  0  0  0
   -4.4900    4.9482   -0.8841 H   0  0  0  0  0  0
   -4.4902    4.9480    0.8840 H   0  0  0  0  0  0
   -4.6086    2.4231    0.8773 H   0  0  0  0  0  0
   -4.6083    2.4234   -0.8781 H   0  0  0  0  0  0
   -2.3329    3.4951   -0.8780 H   0  0  0  0  0  0
   -2.3332    3.4949    0.8783 H   0  0  0  0  0  0
   -2.4943    0.9839    0.8777 H   0  0  0  0  0  0
   -2.4940    0.9842   -0.8782 H   0  0  0  0  0  0
   -0.2105    2.0408   -0.8780 H   0  0  0  0  0  0
   -0.2108    2.0406    0.8785 H   0  0  0  0  0  0
   -0.3942   -0.4687    0.8778 H   0  0  0  0  0  0
   -0.3941   -0.4685   -0.8778 H   0  0  0  0  0  0
    1.8998    0.5653   -0.8780 H   0  0  0  0  0  0
    1.8996    0.5652    0.8786 H   0  0  0  0  0  0
    1.6896   -1.9421    0.8780 H   0  0  0  0  0  0
    1.6896   -1.9420   -0.8776 H   0  0  0  0  0  0
    3.9942   -0.9327   -0.8781 H   0  0  0  0  0  0
    3.9942   -0.9327    0.8784 H   0  0  0  0  0  0
    3.7592   -3.4378    0.8781 H   0  0  0  0  0  0
    3.7590   -3.4378   -0.8777 H   0  0  0  0  0  0
    6.0727   -2.4490   -0.8783 H   0  0  0  0  0  0
    6.0729   -2.4489    0.8780 H   0  0  0  0  0  0
    5.8210   -4.9513    0.8778 H   0  0  0  0  0  0
    5.8206   -4.9515   -0.8775 H   0  0  0  0  0  0
    8.0978   -5.5303   -0.0003 H   0  0  0  0  0  0
    8.1620   -3.9980    0.8835 H   0  0  0  0  0  0
    8.1616   -3.9982   -0.8845 H   0  0  0  0  0  0
  1  2  1  0  0  0
  1 14  1  0  0  0
  1 15  1  0  0  0
  1 16  1  0  0  0
  2  3  1  0  0  0
  2 17  1  0  0  0
  2 18  1  0  0  0
  3  4  1  0  0  0
  3 19  1  0  0  0
  3 20  1  0  0  0
  4  5  1  0  0  0
  4 21  1  0  0  0
  4 22  1  0  0  0
  5  6  1  0  0  0
  5 23  1  0  0  0
  5 24  1  0  0  0
  6  7  1  0  0  0
  6 25  1  0  0  0
  6 26  1  0  0  0
  7  8  1  0  0  0
  7 27  1  0  0  0
  7 28  1  0  0  0
  8  9  1  0  0  0
  8 29  1  0  0  0
  8 30  1  0  0  0
  9 10  1  0  0  0
  9 31  1  0  0  0
  9 32  1  0  0  0
 10 11  1  0  0  0
 10 33  1  0  0  0
 10 34  1  0  0  0
 11 12  1  0  0  0
 11 35  1  0  0  0
 11 36  1  0  0  0
 12 13  1  0  0  0
 12 37  1  0  0  0
 12 38  1  0  0  0
 13 39  1  0  0  0
 13 40  1  0  0  0
 13 41  1  0  0  0
M  END
>  <i_m_Spin_multiplicity> (1)
1

>  <s_j_Task> (1)
Single Point

>  <s_j_QM_Method> (1)
DFT(b3lyp-d3)

>  <s_j_QM_Basis> (1)
cc-pvtz(-f)

>  <i_j_Number_of_canonical_orbitals> (1)
547

>  <i_j_Geometry_convergence_category> (1)
0

>  <r_j_Gas_Phase_Energy> (1)
-512.488364856885

>  <r_j_Final_Energy> (1)
-512.488364856885

>  <r_j_HOMO> (1)
-0.290704096250581

>  <r_j_LUMO> (1)
0.0150205449837293

>  <r_j_Polarizability> (1)
163.857805455491

>  <r_j_QM_Dipole_(debye)> (1)
0.0849435556850006

>  <r_j_QM_Dipole_X_(debye)> (1)
-0.0491041357979299

>  <r_j_QM_Dipole_Y_(debye)> (1)
-0.0693122465738217

>  <r_j_QM_Dipole_Z_(debye)> (1)
-6.30463241546167e-05

>  <r_j_Lowest_Frequency_(cm-1)> (1)
39.390689794017

>  <r_j_Highest_Frequency_(cm-1)> (1)
3044.53021122283

>  <r_j_2nd_Lowest_Frequency_(cm-1)> (1)
45.931326939486

>  <i_j_Num_Negative_Frequencies> (1)
0

>  <r_j_Zero_Point_Energy_(kcal/mol)> (1)
243.333605760792

>  <r_j_Entropy_(cal/mol/K)_298.15K_1.00E+00atm> (1)
126.603577609311

>  <r_j_Enthalpy_(kcal/mol)_298.15K_1.00E+00atm> (1)
10.9352641783899

>  <r_j_Free_Energy_(kcal/mol)_298.15K_1.00E+00atm> (1)
-26.8115924858262

>  <r_j_Internal_Energy_(kcal/mol)_298.15K_1.00E+00atm> (1)
10.3427785895626

>  <r_j_Heat_Capacity_(cal/mol/K)_298.15K_1.00E+00atm> (1)
61.9186715296983

>  <r_j_ln(Q)_298.15K_1.00E+00atm> (1)
45.2527335540688

>  <r_j_Total_Internal_Energy_(au)_298.15K_1.00E+00atm> (1)
-512.084105803472

>  <r_j_Total_Enthalpy_(au)_298.15K_1.00E+00atm> (1)
-512.083161617579

>  <r_j_Total_Free_Energy_(au)_298.15K_1.00E+00atm> (1)
-512.143315063015

>  <r_lp_tautomer_probability> (1)
1

>  <r_epik_Ionization_Penalty> (1)
  0.0000

>  <r_epik_Ionization_Penalty_Charging> (1)
  0.0000

>  <r_epik_Ionization_Penalty_Neutral> (1)
  0.0000

>  <r_epik_State_Penalty> (1)
  0.0000

>  <r_epik_Charging_Adjusted_Penalty> (1)
0

>  <i_epik_Tot_Q> (1)
0

>  <i_epik_Tot_abs_Q> (1)
0

>  <s_lp_Force_Field> (1)
S-OPLS

>  <r_lp_Energy> (1)
5.583136

>  <b_lp_Chiralities_Consistent> (1)
1

$$$$
