12389_Tetradecane
                    3D
 Schrodinger Suite 2021-3.
 44 43  0  0  1  0            999 V2000
   -6.4796    4.2626   -0.1808 C   0  0  0  0  0  0
   -4.9487    4.2730   -0.1441 C   0  0  0  0  0  0
   -4.3368    2.8669   -0.1248 C   0  0  0  0  0  0
   -2.8048    2.8729   -0.0817 C   0  0  0  0  0  0
   -2.1823    1.4721   -0.0544 C   0  0  0  0  0  0
   -0.6506    1.4962    0.0060 C   0  0  0  0  0  0
   -0.0183    0.0989    0.0579 C   0  0  0  0  0  0
    1.5187    0.0997    0.0561 C   0  0  0  0  0  0
    2.1511    0.7551    1.2912 C   0  0  0  0  0  0
    3.6828    0.6894    1.3015 C   0  0  0  0  0  0
    4.3049    1.3673    2.5277 C   0  0  0  0  0  0
    5.8369    1.3248    2.5460 C   0  0  0  0  0  0
    6.4481    2.0121    3.7732 C   0  0  0  0  0  0
    7.9789    1.9723    3.7849 C   0  0  0  0  0  0
   -6.8895    5.2780   -0.1938 H   0  0  0  0  0  0
   -6.8909    3.7478    0.6952 H   0  0  0  0  0  0
   -6.8488    3.7420   -1.0720 H   0  0  0  0  0  0
   -4.5633    4.8226   -1.0138 H   0  0  0  0  0  0
   -4.6059    4.8275    0.7404 H   0  0  0  0  0  0
   -4.7235    2.3147    0.7440 H   0  0  0  0  0  0
   -4.6754    2.3108   -1.0111 H   0  0  0  0  0  0
   -2.4192    3.4243   -0.9513 H   0  0  0  0  0  0
   -2.4705    3.4338    0.8031 H   0  0  0  0  0  0
   -2.5713    0.9183    0.8122 H   0  0  0  0  0  0
   -2.5059    0.9104   -0.9425 H   0  0  0  0  0  0
   -0.2600    2.0374   -0.8683 H   0  0  0  0  0  0
   -0.3422    2.0780    0.8842 H   0  0  0  0  0  0
   -0.3791   -0.4281    0.9532 H   0  0  0  0  0  0
   -0.3762   -0.4842   -0.8016 H   0  0  0  0  0  0
    1.8762   -0.9364   -0.0174 H   0  0  0  0  0  0
    1.8796    0.6099   -0.8488 H   0  0  0  0  0  0
    1.8435    1.8069    1.3539 H   0  0  0  0  0  0
    1.7597    0.2704    2.1977 H   0  0  0  0  0  0
    4.0054   -0.3609    1.2607 H   0  0  0  0  0  0
    4.0728    1.1614    0.3881 H   0  0  0  0  0  0
    3.9720    2.4145    2.5692 H   0  0  0  0  0  0
    3.9176    0.8918    3.4404 H   0  0  0  0  0  0
    6.1740    0.2787    2.5094 H   0  0  0  0  0  0
    6.2253    1.7993    1.6332 H   0  0  0  0  0  0
    6.1072    3.0560    3.8089 H   0  0  0  0  0  0
    6.0604    1.5359    4.6842 H   0  0  0  0  0  0
    8.3884    2.4694    4.6705 H   0  0  0  0  0  0
    8.3925    2.4714    2.9009 H   0  0  0  0  0  0
    8.3462    0.9395    3.7818 H   0  0  0  0  0  0
  1  2  1  0  0  0
  1 15  1  0  0  0
  1 16  1  0  0  0
  1 17  1  0  0  0
  2  3  1  0  0  0
  2 18  1  0  0  0
  2 19  1  0  0  0
  3  4  1  0  0  0
  3 20  1  0  0  0
  3 21  1  0  0  0
  4  5  1  0  0  0
  4 22  1  0  0  0
  4 23  1  0  0  0
  5  6  1  0  0  0
  5 24  1  0  0  0
  5 25  1  0  0  0
  6  7  1  0  0  0
  6 26  1  0  0  0
  6 27  1  0  0  0
  7  8  1  0  0  0
  7 28  1  0  0  0
  7 29  1  0  0  0
  8  9  1  0  0  0
  8 30  1  0  0  0
  8 31  1  0  0  0
  9 10  1  0  0  0
  9 32  1  0  0  0
  9 33  1  0  0  0
 10 11  1  0  0  0
 10 34  1  0  0  0
 10 35  1  0  0  0
 11 12  1  0  0  0
 11 36  1  0  0  0
 11 37  1  0  0  0
 12 13  1  0  0  0
 12 38  1  0  0  0
 12 39  1  0  0  0
 13 14  1  0  0  0
 13 40  1  0  0  0
 13 41  1  0  0  0
 14 42  1  0  0  0
 14 43  1  0  0  0
 14 44  1  0  0  0
M  END
>  <i_m_Spin_multiplicity> (1)
1

>  <s_j_Task> (1)
Single Point

>  <s_j_QM_Method> (1)
DFT(b3lyp-d3)

>  <s_j_QM_Basis> (1)
cc-pvtz(-f)

>  <i_j_Number_of_canonical_orbitals> (1)
588

>  <i_j_Geometry_convergence_category> (1)
3

>  <r_j_Gas_Phase_Energy> (1)
-551.816928248109

>  <r_j_Final_Energy> (1)
-551.816928248109

>  <r_j_HOMO> (1)
-0.288179890018914

>  <r_j_LUMO> (1)
0.0268206232410021

>  <r_j_Polarizability> (1)
175.422265983931

>  <r_j_QM_Dipole_(debye)> (1)
0.0234792568763892

>  <r_j_QM_Dipole_X_(debye)> (1)
0.000251887130376921

>  <r_j_QM_Dipole_Y_(debye)> (1)
0.0204274168606458

>  <r_j_QM_Dipole_Z_(debye)> (1)
0.0115729294797136

>  <r_j_Lowest_Frequency_(cm-1)> (1)
35.2894905274069

>  <r_j_Highest_Frequency_(cm-1)> (1)
3045.6976976522

>  <r_j_2nd_Lowest_Frequency_(cm-1)> (1)
68.4450202953094

>  <i_j_Num_Negative_Frequencies> (1)
0

>  <r_j_Zero_Point_Energy_(kcal/mol)> (1)
261.363666411052

>  <r_j_Entropy_(cal/mol/K)_298.15K_1.00E+00atm> (1)
132.549201914769

>  <r_j_Enthalpy_(kcal/mol)_298.15K_1.00E+00atm> (1)
11.6296780778608

>  <r_j_Free_Energy_(kcal/mol)_298.15K_1.00E+00atm> (1)
-27.8898664730276

>  <r_j_Internal_Energy_(kcal/mol)_298.15K_1.00E+00atm> (1)
11.0371924890336

>  <r_j_Heat_Capacity_(cal/mol/K)_298.15K_1.00E+00atm> (1)
66.5832319976884

>  <r_j_ln(Q)_298.15K_1.00E+00atm> (1)
47.0726495276128

>  <r_j_Total_Internal_Energy_(au)_298.15K_1.00E+00atm> (1)
-551.382829844941

>  <r_j_Total_Enthalpy_(au)_298.15K_1.00E+00atm> (1)
-551.381885659049

>  <r_j_Total_Free_Energy_(au)_298.15K_1.00E+00atm> (1)
-551.444864062468

>  <r_lp_tautomer_probability> (1)
1

>  <r_epik_Ionization_Penalty> (1)
  0.0000

>  <r_epik_Ionization_Penalty_Charging> (1)
  0.0000

>  <r_epik_Ionization_Penalty_Neutral> (1)
  0.0000

>  <r_epik_State_Penalty> (1)
  0.0000

>  <r_epik_Charging_Adjusted_Penalty> (1)
0

>  <i_epik_Tot_Q> (1)
0

>  <i_epik_Tot_abs_Q> (1)
0

>  <s_lp_Force_Field> (1)
S-OPLS

>  <r_lp_Energy> (1)
6.436962

>  <b_lp_Chiralities_Consistent> (1)
1

$$$$
