12399_Dioctyl Ether
                    3D
 Schrodinger Suite 2021-3.
 51 50  0  0  1  0            999 V2000
    0.9728    7.0127    0.8935 C   0  0  0  0  0  0
   -0.4723    6.7304    1.3181 C   0  0  0  0  0  0
   -0.5940    5.8049    2.5409 C   0  0  0  0  0  0
    0.0368    4.4112    2.3806 C   0  0  0  0  0  0
   -0.5264    3.5928    1.2119 C   0  0  0  0  0  0
   -0.0006    2.1537    1.1782 C   0  0  0  0  0  0
   -0.5263    1.3487   -0.0158 C   0  0  0  0  0  0
   -0.0418   -0.0955   -0.0270 C   0  0  0  0  0  0
    1.3731   -0.0977   -0.1080 O   0  0  0  0  0  0
    1.9427   -1.3958   -0.0860 C   0  0  0  0  0  0
    3.4595   -1.2574   -0.0550 C   0  0  0  0  0  0
    3.9677   -0.5457    1.2037 C   0  0  0  0  0  0
    5.4908   -0.3846    1.2395 C   0  0  0  0  0  0
    5.9889    0.3353    2.4978 C   0  0  0  0  0  0
    7.5116    0.5014    2.5494 C   0  0  0  0  0  0
    8.0013    1.2263    3.8088 C   0  0  0  0  0  0
    9.5237    1.3858    3.8572 C   0  0  0  0  0  0
    1.0108    7.7334    0.0702 H   0  0  0  0  0  0
    1.4801    6.1025    0.5572 H   0  0  0  0  0  0
    1.5545    7.4260    1.7260 H   0  0  0  0  0  0
   -0.9729    7.6791    1.5498 H   0  0  0  0  0  0
   -1.0235    6.3005    0.4723 H   0  0  0  0  0  0
   -0.1353    6.3016    3.4068 H   0  0  0  0  0  0
   -1.6582    5.6846    2.7862 H   0  0  0  0  0  0
    1.1247    4.5028    2.2631 H   0  0  0  0  0  0
   -0.1150    3.8520    3.3139 H   0  0  0  0  0  0
   -1.6248    3.5803    1.2720 H   0  0  0  0  0  0
   -0.2818    4.0859    0.2615 H   0  0  0  0  0  0
    1.0952    2.1563    1.1467 H   0  0  0  0  0  0
   -0.2787    1.6416    2.1108 H   0  0  0  0  0  0
   -1.6246    1.3431   -0.0118 H   0  0  0  0  0  0
   -0.2161    1.8294   -0.9523 H   0  0  0  0  0  0
   -0.3718   -0.6143    0.8911 H   0  0  0  0  0  0
   -0.4774   -0.6423   -0.8813 H   0  0  0  0  0  0
    1.5945   -1.9512    0.8033 H   0  0  0  0  0  0
    1.6220   -1.9705   -0.9722 H   0  0  0  0  0  0
    3.9013   -2.2603   -0.1265 H   0  0  0  0  0  0
    3.7779   -0.7064   -0.9491 H   0  0  0  0  0  0
    3.4879    0.4377    1.2688 H   0  0  0  0  0  0
    3.6393   -1.1061    2.0912 H   0  0  0  0  0  0
    5.9673   -1.3735    1.1728 H   0  0  0  0  0  0
    5.8198    0.1699    0.3489 H   0  0  0  0  0  0
    5.5129    1.3244    2.5601 H   0  0  0  0  0  0
    5.6541   -0.2167    3.3879 H   0  0  0  0  0  0
    7.9889   -0.4875    2.4912 H   0  0  0  0  0  0
    7.8492    1.0520    1.6594 H   0  0  0  0  0  0
    7.5255    2.2150    3.8636 H   0  0  0  0  0  0
    7.6603    0.6768    4.6969 H   0  0  0  0  0  0
    9.8461    1.9067    4.7649 H   0  0  0  0  0  0
    9.8876    1.9589    2.9966 H   0  0  0  0  0  0
   10.0231    0.4101    3.8374 H   0  0  0  0  0  0
  1  2  1  0  0  0
  1 18  1  0  0  0
  1 19  1  0  0  0
  1 20  1  0  0  0
  2  3  1  0  0  0
  2 21  1  0  0  0
  2 22  1  0  0  0
  3  4  1  0  0  0
  3 23  1  0  0  0
  3 24  1  0  0  0
  4  5  1  0  0  0
  4 25  1  0  0  0
  4 26  1  0  0  0
  5  6  1  0  0  0
  5 27  1  0  0  0
  5 28  1  0  0  0
  6  7  1  0  0  0
  6 29  1  0  0  0
  6 30  1  0  0  0
  7  8  1  0  0  0
  7 31  1  0  0  0
  7 32  1  0  0  0
  8  9  1  0  0  0
  8 33  1  0  0  0
  8 34  1  0  0  0
  9 10  1  0  0  0
 10 11  1  0  0  0
 10 35  1  0  0  0
 10 36  1  0  0  0
 11 12  1  0  0  0
 11 37  1  0  0  0
 11 38  1  0  0  0
 12 13  1  0  0  0
 12 39  1  0  0  0
 12 40  1  0  0  0
 13 14  1  0  0  0
 13 41  1  0  0  0
 13 42  1  0  0  0
 14 15  1  0  0  0
 14 43  1  0  0  0
 14 44  1  0  0  0
 15 16  1  0  0  0
 15 45  1  0  0  0
 15 46  1  0  0  0
 16 17  1  0  0  0
 16 47  1  0  0  0
 16 48  1  0  0  0
 17 49  1  0  0  0
 17 50  1  0  0  0
 17 51  1  0  0  0
M  END
>  <i_m_Spin_multiplicity> (1)
1

>  <s_j_Task> (1)
Single Point

>  <s_j_QM_Method> (1)
DFT(b3lyp-d3)

>  <s_j_QM_Basis> (1)
cc-pvtz(-f)

>  <i_j_Number_of_canonical_orbitals> (1)
693

>  <i_j_Geometry_convergence_category> (1)
3

>  <r_j_Gas_Phase_Energy> (1)
-705.711140123853

>  <r_j_Final_Energy> (1)
-705.711140123853

>  <r_j_HOMO> (1)
-0.258977482475044

>  <r_j_LUMO> (1)
0.0225233940426046

>  <r_j_Polarizability> (1)
202.325253948832

>  <r_j_QM_Dipole_(debye)> (1)
0.98994386135927

>  <r_j_QM_Dipole_X_(debye)> (1)
-0.618256505600338

>  <r_j_QM_Dipole_Y_(debye)> (1)
-0.771122507023581

>  <r_j_QM_Dipole_Z_(debye)> (1)
0.0558374523722984

>  <r_j_Lowest_Frequency_(cm-1)> (1)
22.9331626840159

>  <r_j_Highest_Frequency_(cm-1)> (1)
3049.90706944423

>  <r_j_2nd_Lowest_Frequency_(cm-1)> (1)
44.061358142237

>  <i_j_Num_Negative_Frequencies> (1)
0

>  <r_j_Zero_Point_Energy_(kcal/mol)> (1)
300.251125420352

>  <r_j_Entropy_(cal/mol/K)_298.15K_1.00E+00atm> (1)
146.626734544399

>  <r_j_Enthalpy_(kcal/mol)_298.15K_1.00E+00atm> (1)
13.5761388727209

>  <r_j_Free_Energy_(kcal/mol)_298.15K_1.00E+00atm> (1)
-30.1406220316915

>  <r_j_Internal_Energy_(kcal/mol)_298.15K_1.00E+00atm> (1)
12.9836532838936

>  <r_j_Heat_Capacity_(cal/mol/K)_298.15K_1.00E+00atm> (1)
78.9485242513049

>  <r_j_ln(Q)_298.15K_1.00E+00atm> (1)
50.8714854843133

>  <r_j_Total_Internal_Energy_(au)_298.15K_1.00E+00atm> (1)
-705.211968726959

>  <r_j_Total_Enthalpy_(au)_298.15K_1.00E+00atm> (1)
-705.211024541067

>  <r_j_Total_Free_Energy_(au)_298.15K_1.00E+00atm> (1)
-705.280691634544

>  <r_lp_tautomer_probability> (1)
1

>  <r_epik_Ionization_Penalty> (1)
  0.0000

>  <r_epik_Ionization_Penalty_Charging> (1)
  0.0000

>  <r_epik_Ionization_Penalty_Neutral> (1)
  0.0000

>  <r_epik_State_Penalty> (1)
  0.0000

>  <r_epik_Charging_Adjusted_Penalty> (1)
0

>  <i_epik_Tot_Q> (1)
0

>  <i_epik_Tot_abs_Q> (1)
0

>  <s_lp_Force_Field> (1)
S-OPLS

>  <r_lp_Energy> (1)
6.532896

>  <b_lp_Chiralities_Consistent> (1)
1

$$$$
