12391_Pentadecane
                    3D
 Schrodinger Suite 2021-3.
 47 46  0  0  1  0            999 V2000
   -6.4412    2.5610   -1.2628 C   0  0  0  0  0  0
   -4.9212    2.3733   -1.2820 C   0  0  0  0  0  0
   -4.2344    2.9607   -0.0408 C   0  0  0  0  0  0
   -2.7008    2.8727   -0.0600 C   0  0  0  0  0  0
   -2.1434    1.4433   -0.0236 C   0  0  0  0  0  0
   -0.6114    1.3955    0.0053 C   0  0  0  0  0  0
   -0.0442   -0.0284    0.0316 C   0  0  0  0  0  0
    1.4880   -0.0715    0.0303 C   0  0  0  0  0  0
    2.0626   -1.4925    0.0522 C   0  0  0  0  0  0
    3.5949   -1.5259    0.0273 C   0  0  0  0  0  0
    4.1802   -2.9424    0.0477 C   0  0  0  0  0  0
    5.7125   -2.9643    0.0084 C   0  0  0  0  0  0
    6.3084   -4.3762    0.0303 C   0  0  0  0  0  0
    7.8412   -4.3899   -0.0155 C   0  0  0  0  0  0
    8.4308   -5.8031    0.0091 C   0  0  0  0  0  0
   -6.9117    2.1342   -2.1547 H   0  0  0  0  0  0
   -6.7071    3.6237   -1.2207 H   0  0  0  0  0  0
   -6.8864    2.0757   -0.3864 H   0  0  0  0  0  0
   -4.6909    1.3040   -1.3652 H   0  0  0  0  0  0
   -4.5026    2.8459   -2.1816 H   0  0  0  0  0  0
   -4.5289    4.0146    0.0582 H   0  0  0  0  0  0
   -4.6167    2.4544    0.8577 H   0  0  0  0  0  0
   -2.3211    3.3855   -0.9558 H   0  0  0  0  0  0
   -2.3007    3.4290    0.7987 H   0  0  0  0  0  0
   -2.5425    0.9211    0.8583 H   0  0  0  0  0  0
   -2.4992    0.8800   -0.8961 H   0  0  0  0  0  0
   -0.2168    1.9261   -0.8734 H   0  0  0  0  0  0
   -0.2450    1.9496    0.8815 H   0  0  0  0  0  0
   -0.4237   -0.5557    0.9187 H   0  0  0  0  0  0
   -0.4234   -0.5865   -0.8367 H   0  0  0  0  0  0
    1.8636    0.4571   -0.8577 H   0  0  0  0  0  0
    1.8686    0.4875    0.8973 H   0  0  0  0  0  0
    1.7004   -2.0187    0.9472 H   0  0  0  0  0  0
    1.6729   -2.0557   -0.8080 H   0  0  0  0  0  0
    3.9535   -0.9988   -0.8686 H   0  0  0  0  0  0
    3.9845   -0.9600    0.8858 H   0  0  0  0  0  0
    3.8309   -3.4682    0.9480 H   0  0  0  0  0  0
    3.7862   -3.5115   -0.8066 H   0  0  0  0  0  0
    6.0589   -2.4386   -0.8931 H   0  0  0  0  0  0
    6.1054   -2.3915    0.8609 H   0  0  0  0  0  0
    5.9671   -4.9021    0.9338 H   0  0  0  0  0  0
    5.9147   -4.9514   -0.8203 H   0  0  0  0  0  0
    8.1799   -3.8656   -0.9197 H   0  0  0  0  0  0
    8.2328   -3.8129    0.8335 H   0  0  0  0  0  0
    9.5251   -5.7842   -0.0253 H   0  0  0  0  0  0
    8.0799   -6.3912   -0.8468 H   0  0  0  0  0  0
    8.1345   -6.3376    0.9192 H   0  0  0  0  0  0
  1  2  1  0  0  0
  1 16  1  0  0  0
  1 17  1  0  0  0
  1 18  1  0  0  0
  2  3  1  0  0  0
  2 19  1  0  0  0
  2 20  1  0  0  0
  3  4  1  0  0  0
  3 21  1  0  0  0
  3 22  1  0  0  0
  4  5  1  0  0  0
  4 23  1  0  0  0
  4 24  1  0  0  0
  5  6  1  0  0  0
  5 25  1  0  0  0
  5 26  1  0  0  0
  6  7  1  0  0  0
  6 27  1  0  0  0
  6 28  1  0  0  0
  7  8  1  0  0  0
  7 29  1  0  0  0
  7 30  1  0  0  0
  8  9  1  0  0  0
  8 31  1  0  0  0
  8 32  1  0  0  0
  9 10  1  0  0  0
  9 33  1  0  0  0
  9 34  1  0  0  0
 10 11  1  0  0  0
 10 35  1  0  0  0
 10 36  1  0  0  0
 11 12  1  0  0  0
 11 37  1  0  0  0
 11 38  1  0  0  0
 12 13  1  0  0  0
 12 39  1  0  0  0
 12 40  1  0  0  0
 13 14  1  0  0  0
 13 41  1  0  0  0
 13 42  1  0  0  0
 14 15  1  0  0  0
 14 43  1  0  0  0
 14 44  1  0  0  0
 15 45  1  0  0  0
 15 46  1  0  0  0
 15 47  1  0  0  0
M  END
>  <i_m_Spin_multiplicity> (1)
1

>  <s_j_Task> (1)
Single Point

>  <s_j_QM_Method> (1)
DFT(b3lyp-d3)

>  <s_j_QM_Basis> (1)
cc-pvtz(-f)

>  <i_j_Number_of_canonical_orbitals> (1)
629

>  <i_j_Geometry_convergence_category> (1)
0

>  <r_j_Gas_Phase_Energy> (1)
-591.146368133862

>  <r_j_Final_Energy> (1)
-591.146368133862

>  <r_j_HOMO> (1)
-0.2910032840168

>  <r_j_LUMO> (1)
0.0103194084569456

>  <r_j_Polarizability> (1)
188.554371016485

>  <r_j_QM_Dipole_(debye)> (1)
0.0643830671949754

>  <r_j_QM_Dipole_X_(debye)> (1)
0.0467784569817731

>  <r_j_QM_Dipole_Y_(debye)> (1)
0.0423965085369584

>  <r_j_QM_Dipole_Z_(debye)> (1)
-0.0126289891801658

>  <r_j_Lowest_Frequency_(cm-1)> (1)
36.2072167362473

>  <r_j_Highest_Frequency_(cm-1)> (1)
3045.84876394717

>  <r_j_2nd_Lowest_Frequency_(cm-1)> (1)
48.6361592295306

>  <i_j_Num_Negative_Frequencies> (1)
0

>  <r_j_Zero_Point_Energy_(kcal/mol)> (1)
279.19717530287

>  <r_j_Entropy_(cal/mol/K)_298.15K_1.00E+00atm> (1)
137.756190596676

>  <r_j_Enthalpy_(kcal/mol)_298.15K_1.00E+00atm> (1)
12.4196134613236

>  <r_j_Free_Energy_(kcal/mol)_298.15K_1.00E+00atm> (1)
-28.6523947650752

>  <r_j_Internal_Energy_(kcal/mol)_298.15K_1.00E+00atm> (1)
11.8271278724963

>  <r_j_Heat_Capacity_(cal/mol/K)_298.15K_1.00E+00atm> (1)
71.3419382145123

>  <r_j_ln(Q)_298.15K_1.00E+00atm> (1)
48.3596484123569

>  <r_j_Total_Internal_Energy_(au)_298.15K_1.00E+00atm> (1)
-590.682591382931

>  <r_j_Total_Enthalpy_(au)_298.15K_1.00E+00atm> (1)
-590.681647197039

>  <r_j_Total_Free_Energy_(au)_298.15K_1.00E+00atm> (1)
-590.747099608819

>  <r_lp_tautomer_probability> (1)
1

>  <r_epik_Ionization_Penalty> (1)
  0.0000

>  <r_epik_Ionization_Penalty_Charging> (1)
  0.0000

>  <r_epik_Ionization_Penalty_Neutral> (1)
  0.0000

>  <r_epik_State_Penalty> (1)
  0.0000

>  <r_epik_Charging_Adjusted_Penalty> (1)
0

>  <i_epik_Tot_Q> (1)
0

>  <i_epik_Tot_abs_Q> (1)
0

>  <s_lp_Force_Field> (1)
S-OPLS

>  <r_lp_Energy> (1)
7.063705

>  <b_lp_Chiralities_Consistent> (1)
1

$$$$
