12400_Methyl triacontanoate
                    3D
 Schrodinger Suite 2021-3.
 95 94  0  0  1  0            999 V2000
   -6.4459   12.6647   -1.5896 C   0  0  0  0  0  0
   -6.9758   11.3393   -1.0338 C   0  0  0  0  0  0
   -8.4015   11.0225   -1.5074 C   0  0  0  0  0  0
   -9.0032    9.7449   -0.9012 C   0  0  0  0  0  0
   -8.2979    8.4490   -1.3230 C   0  0  0  0  0  0
   -8.9276    7.1959   -0.7002 C   0  0  0  0  0  0
   -8.3001    5.8711   -1.1616 C   0  0  0  0  0  0
   -6.8116    5.7235   -0.8179 C   0  0  0  0  0  0
   -6.2481    4.3329   -1.1329 C   0  0  0  0  0  0
   -4.7440    4.2173   -0.8596 C   0  0  0  0  0  0
   -4.1803    2.8118   -1.0974 C   0  0  0  0  0  0
   -2.6663    2.7220   -0.8726 C   0  0  0  0  0  0
   -2.1062    1.3035   -1.0271 C   0  0  0  0  0  0
   -0.5863    1.2269   -0.8404 C   0  0  0  0  0  0
   -0.0350   -0.2019   -0.9044 C   0  0  0  0  0  0
    1.4883   -0.2770   -0.7470 C   0  0  0  0  0  0
    2.0240   -1.7127   -0.7130 C   0  0  0  0  0  0
    3.5488   -1.7977   -0.5756 C   0  0  0  0  0  0
    4.0606   -3.2361   -0.4361 C   0  0  0  0  0  0
    5.5869   -3.3327   -0.3078 C   0  0  0  0  0  0
    6.1166   -4.7661   -0.1377 C   0  0  0  0  0  0
    5.7092   -5.4272    1.1857 C   0  0  0  0  0  0
    6.2832   -6.8358    1.3762 C   0  0  0  0  0  0
    5.8585   -7.4730    2.7042 C   0  0  0  0  0  0
    6.3889   -8.8959    2.9115 C   0  0  0  0  0  0
    5.9498   -9.5066    4.2475 C   0  0  0  0  0  0
    6.4435  -10.9445    4.4546 C   0  0  0  0  0  0
    6.0996  -11.5400    5.8274 C   0  0  0  0  0  0
    4.5961  -11.6979    6.0678 C   0  0  0  0  0  0
    4.2820  -12.3497    7.3982 C   0  0  0  0  0  0
    5.0960  -12.7557    8.1995 O   0  0  0  0  0  0
    2.9440  -12.4265    7.5928 O   0  0  0  0  0  0
    2.5407  -13.0310    8.8335 C   0  0  0  0  0  0
   -5.4286   12.8701   -1.2400 H   0  0  0  0  0  0
   -7.0806   13.5039   -1.2822 H   0  0  0  0  0  0
   -6.4254   12.6520   -2.6855 H   0  0  0  0  0  0
   -6.2964   10.5291   -1.3258 H   0  0  0  0  0  0
   -6.9610   11.3680    0.0647 H   0  0  0  0  0  0
   -9.0505   11.8739   -1.2602 H   0  0  0  0  0  0
   -8.4094   10.9448   -2.6044 H   0  0  0  0  0  0
   -8.9860    9.8243    0.1956 H   0  0  0  0  0  0
  -10.0630    9.6792   -1.1826 H   0  0  0  0  0  0
   -8.3206    8.3634   -2.4196 H   0  0  0  0  0  0
   -7.2395    8.5006   -1.0435 H   0  0  0  0  0  0
   -8.8556    7.2662    0.3949 H   0  0  0  0  0  0
  -10.0013    7.1822   -0.9326 H   0  0  0  0  0  0
   -8.8552    5.0392   -0.7070 H   0  0  0  0  0  0
   -8.4308    5.7646   -2.2481 H   0  0  0  0  0  0
   -6.2274    6.4763   -1.3632 H   0  0  0  0  0  0
   -6.6624    5.9402    0.2502 H   0  0  0  0  0  0
   -6.7877    3.5792   -0.5417 H   0  0  0  0  0  0
   -6.4454    4.0881   -2.1866 H   0  0  0  0  0  0
   -4.2055    4.9383   -1.4914 H   0  0  0  0  0  0
   -4.5396    4.5159    0.1788 H   0  0  0  0  0  0
   -4.6912    2.0998   -0.4334 H   0  0  0  0  0  0
   -4.4153    2.4910   -2.1224 H   0  0  0  0  0  0
   -2.1549    3.3962   -1.5746 H   0  0  0  0  0  0
   -2.4259    3.0958    0.1332 H   0  0  0  0  0  0
   -2.5963    0.6409   -0.2992 H   0  0  0  0  0  0
   -2.3711    0.9105   -2.0191 H   0  0  0  0  0  0
   -0.0943    1.8453   -1.6049 H   0  0  0  0  0  0
   -0.3166    1.6733    0.1276 H   0  0  0  0  0  0
   -0.5111   -0.8064   -0.1189 H   0  0  0  0  0  0
   -0.3254   -0.6647   -1.8585 H   0  0  0  0  0  0
    1.9677    0.2762   -1.5673 H   0  0  0  0  0  0
    1.7835    0.2390    0.1780 H   0  0  0  0  0  0
    1.5551   -2.2501    0.1240 H   0  0  0  0  0  0
    1.7110   -2.2426   -1.6241 H   0  0  0  0  0  0
    4.0224   -1.3180   -1.4440 H   0  0  0  0  0  0
    3.8671   -1.2162    0.3017 H   0  0  0  0  0  0
    3.5821   -3.6935    0.4395 H   0  0  0  0  0  0
    3.7336   -3.8278   -1.3035 H   0  0  0  0  0  0
    6.0460   -2.8806   -1.1973 H   0  0  0  0  0  0
    5.9176   -2.7237    0.5460 H   0  0  0  0  0  0
    5.7690   -5.3857   -0.9770 H   0  0  0  0  0  0
    7.2129   -4.7533   -0.2039 H   0  0  0  0  0  0
    6.0320   -4.7879    2.0205 H   0  0  0  0  0  0
    4.6151   -5.4826    1.2541 H   0  0  0  0  0  0
    5.9601   -7.4770    0.5435 H   0  0  0  0  0  0
    7.3806   -6.7975    1.3218 H   0  0  0  0  0  0
    6.1952   -6.8362    3.5349 H   0  0  0  0  0  0
    4.7604   -7.4868    2.7621 H   0  0  0  0  0  0
    6.0449   -9.5368    2.0870 H   0  0  0  0  0  0
    7.4867   -8.8912    2.8544 H   0  0  0  0  0  0
    6.3149   -8.8774    5.0723 H   0  0  0  0  0  0
    4.8534   -9.4747    4.3051 H   0  0  0  0  0  0
    6.0331  -11.5868    3.6620 H   0  0  0  0  0  0
    7.5338  -10.9667    4.3275 H   0  0  0  0  0  0
    6.5750  -12.5205    5.9377 H   0  0  0  0  0  0
    6.5234  -10.9136    6.6217 H   0  0  0  0  0  0
    4.0724  -10.7357    6.0425 H   0  0  0  0  0  0
    4.1307  -12.3049    5.2798 H   0  0  0  0  0  0
    1.4507  -13.0102    8.8328 H   0  0  0  0  0  0
    2.9349  -12.4677    9.6837 H   0  0  0  0  0  0
    2.9050  -14.0599    8.8989 H   0  0  0  0  0  0
  1  2  1  0  0  0
  1 34  1  0  0  0
  1 35  1  0  0  0
  1 36  1  0  0  0
  2  3  1  0  0  0
  2 37  1  0  0  0
  2 38  1  0  0  0
  3  4  1  0  0  0
  3 39  1  0  0  0
  3 40  1  0  0  0
  4  5  1  0  0  0
  4 41  1  0  0  0
  4 42  1  0  0  0
  5  6  1  0  0  0
  5 43  1  0  0  0
  5 44  1  0  0  0
  6  7  1  0  0  0
  6 45  1  0  0  0
  6 46  1  0  0  0
  7  8  1  0  0  0
  7 47  1  0  0  0
  7 48  1  0  0  0
  8  9  1  0  0  0
  8 49  1  0  0  0
  8 50  1  0  0  0
  9 10  1  0  0  0
  9 51  1  0  0  0
  9 52  1  0  0  0
 10 11  1  0  0  0
 10 53  1  0  0  0
 10 54  1  0  0  0
 11 12  1  0  0  0
 11 55  1  0  0  0
 11 56  1  0  0  0
 12 13  1  0  0  0
 12 57  1  0  0  0
 12 58  1  0  0  0
 13 14  1  0  0  0
 13 59  1  0  0  0
 13 60  1  0  0  0
 14 15  1  0  0  0
 14 61  1  0  0  0
 14 62  1  0  0  0
 15 16  1  0  0  0
 15 63  1  0  0  0
 15 64  1  0  0  0
 16 17  1  0  0  0
 16 65  1  0  0  0
 16 66  1  0  0  0
 17 18  1  0  0  0
 17 67  1  0  0  0
 17 68  1  0  0  0
 18 19  1  0  0  0
 18 69  1  0  0  0
 18 70  1  0  0  0
 19 20  1  0  0  0
 19 71  1  0  0  0
 19 72  1  0  0  0
 20 21  1  0  0  0
 20 73  1  0  0  0
 20 74  1  0  0  0
 21 22  1  0  0  0
 21 75  1  0  0  0
 21 76  1  0  0  0
 22 23  1  0  0  0
 22 77  1  0  0  0
 22 78  1  0  0  0
 23 24  1  0  0  0
 23 79  1  0  0  0
 23 80  1  0  0  0
 24 25  1  0  0  0
 24 81  1  0  0  0
 24 82  1  0  0  0
 25 26  1  0  0  0
 25 83  1  0  0  0
 25 84  1  0  0  0
 26 27  1  0  0  0
 26 85  1  0  0  0
 26 86  1  0  0  0
 27 28  1  0  0  0
 27 87  1  0  0  0
 27 88  1  0  0  0
 28 29  1  0  0  0
 28 89  1  0  0  0
 28 90  1  0  0  0
 29 30  1  0  0  0
 29 91  1  0  0  0
 29 92  1  0  0  0
 30 31  2  0  0  0
 30 32  1  0  0  0
 32 33  1  0  0  0
 33 93  1  0  0  0
 33 94  1  0  0  0
 33 95  1  0  0  0
M  END
>  <i_m_Spin_multiplicity> (1)
1

>  <s_j_Task> (1)
Single Point

>  <s_j_QM_Method> (1)
DFT(b3lyp-d3)

>  <s_j_QM_Basis> (1)
cc-pvtz(-f)

>  <i_j_Number_of_canonical_orbitals> (1)
1307

>  <i_j_Geometry_convergence_category> (1)
3

>  <r_j_Gas_Phase_Energy> (1)
-1369.71495105468

>  <r_j_Final_Energy> (1)
-1369.71495105468

>  <r_j_HOMO> (1)
-0.247540678916131

>  <r_j_LUMO> (1)
-0.102153837014066

>  <r_j_Polarizability> (1)
391.783367041681

>  <r_j_QM_Dipole_(debye)> (1)
1.64043384241323

>  <r_j_QM_Dipole_X_(debye)> (1)
-1.34079587003659

>  <r_j_QM_Dipole_Y_(debye)> (1)
0.445603851903577

>  <r_j_QM_Dipole_Z_(debye)> (1)
-0.833502749483269

>  <r_j_Lowest_Frequency_(cm-1)> (1)
14.6156812171777

>  <r_j_Highest_Frequency_(cm-1)> (1)
3106.4853333707

>  <r_j_2nd_Lowest_Frequency_(cm-1)> (1)
20.1444716563096

>  <i_j_Num_Negative_Frequencies> (1)
0

>  <r_j_Zero_Point_Energy_(kcal/mol)> (1)
556.90092935807

>  <r_j_Entropy_(cal/mol/K)_298.15K_1.00E+00atm> (1)
229.934553084957

>  <r_j_Enthalpy_(kcal/mol)_298.15K_1.00E+00atm> (1)
25.4583533495761

>  <r_j_Free_Energy_(kcal/mol)_298.15K_1.00E+00atm> (1)
-43.0966336527039

>  <r_j_Internal_Energy_(kcal/mol)_298.15K_1.00E+00atm> (1)
24.8658677607488

>  <r_j_Heat_Capacity_(cal/mol/K)_298.15K_1.00E+00atm> (1)
151.817219043656

>  <r_j_ln(Q)_298.15K_1.00E+00atm> (1)
72.7387036332925

>  <r_j_Total_Internal_Energy_(au)_298.15K_1.00E+00atm> (1)
-1368.78784664442

>  <r_j_Total_Enthalpy_(au)_298.15K_1.00E+00atm> (1)
-1368.78690245852

>  <r_j_Total_Free_Energy_(au)_298.15K_1.00E+00atm> (1)
-1368.89615178508

>  <r_lp_tautomer_probability> (1)
1

>  <r_epik_Ionization_Penalty> (1)
  0.0000

>  <r_epik_Ionization_Penalty_Charging> (1)
  0.0000

>  <r_epik_Ionization_Penalty_Neutral> (1)
  0.0000

>  <r_epik_State_Penalty> (1)
  0.0000

>  <r_epik_Charging_Adjusted_Penalty> (1)
0

>  <i_epik_Tot_Q> (1)
0

>  <i_epik_Tot_abs_Q> (1)
0

>  <s_lp_Force_Field> (1)
S-OPLS

>  <r_lp_Energy> (1)
16.072818

>  <b_lp_Chiralities_Consistent> (1)
1

>  <s_epik_Chemistry_Notes> (1)
This compound has an ester and may undergo hydrolysis at high or low pH.

$$$$
