12401_Nonadecane
                    3D
 Schrodinger Suite 2021-3.
 59 58  0  0  1  0            999 V2000
   -0.8883    9.0789   -5.2061 C   0  0  0  0  0  0
   -1.3032    8.2266   -4.0031 C   0  0  0  0  0  0
   -0.6092    6.8598   -3.9653 C   0  0  0  0  0  0
   -1.0207    6.0033   -2.7627 C   0  0  0  0  0  0
   -0.3350    4.6329   -2.7198 C   0  0  0  0  0  0
   -0.7536    3.7853   -1.5131 C   0  0  0  0  0  0
   -0.0809    2.4085   -1.4657 C   0  0  0  0  0  0
   -0.5066    1.5762   -0.2488 C   0  0  0  0  0  0
    0.0668    0.1512   -0.2154 C   0  0  0  0  0  0
    1.5932    0.0793   -0.0759 C   0  0  0  0  0  0
    2.1157   -1.3562    0.0539 C   0  0  0  0  0  0
    3.6414   -1.4447    0.1757 C   0  0  0  0  0  0
    4.1489   -2.8860    0.3171 C   0  0  0  0  0  0
    5.6787   -3.0264    0.3379 C   0  0  0  0  0  0
    6.3643   -2.3772    1.5476 C   0  0  0  0  0  0
    7.8778   -2.6192    1.5788 C   0  0  0  0  0  0
    8.5781   -1.9735    2.7795 C   0  0  0  0  0  0
   10.0906   -2.2236    2.8077 C   0  0  0  0  0  0
   10.7849   -1.5766    4.0099 C   0  0  0  0  0  0
   -1.3986   10.0477   -5.2089 H   0  0  0  0  0  0
   -1.1274    8.5731   -6.1487 H   0  0  0  0  0  0
    0.1910    9.2702   -5.2001 H   0  0  0  0  0  0
   -1.0822    8.7692   -3.0738 H   0  0  0  0  0  0
   -2.3917    8.0780   -4.0152 H   0  0  0  0  0  0
   -0.8304    6.3147   -4.8943 H   0  0  0  0  0  0
    0.4805    7.0061   -3.9534 H   0  0  0  0  0  0
   -0.7975    6.5496   -1.8350 H   0  0  0  0  0  0
   -2.1111    5.8622   -2.7744 H   0  0  0  0  0  0
   -0.5595    4.0843   -3.6457 H   0  0  0  0  0  0
    0.7557    4.7713   -2.7073 H   0  0  0  0  0  0
   -0.5237    4.3332   -0.5880 H   0  0  0  0  0  0
   -1.8454    3.6554   -1.5228 H   0  0  0  0  0  0
   -0.3196    1.8542   -2.3851 H   0  0  0  0  0  0
    1.0087    2.5425   -1.4663 H   0  0  0  0  0  0
   -0.2163    2.1057    0.6701 H   0  0  0  0  0  0
   -1.6034    1.5171   -0.2297 H   0  0  0  0  0  0
   -0.3892   -0.3944    0.6221 H   0  0  0  0  0  0
   -0.2381   -0.3838   -1.1264 H   0  0  0  0  0  0
    2.0716    0.5569   -0.9410 H   0  0  0  0  0  0
    1.9045    0.6616    0.8036 H   0  0  0  0  0  0
    1.6532   -1.8332    0.9300 H   0  0  0  0  0  0
    1.7867   -1.9420   -0.8166 H   0  0  0  0  0  0
    4.1049   -0.9828   -0.7083 H   0  0  0  0  0  0
    3.9668   -0.8462    1.0367 H   0  0  0  0  0  0
    3.7314   -3.3277    1.2334 H   0  0  0  0  0  0
    3.7500   -3.4825   -0.5147 H   0  0  0  0  0  0
    5.9368   -4.0941    0.3186 H   0  0  0  0  0  0
    6.0946   -2.5981   -0.5856 H   0  0  0  0  0  0
    6.1749   -1.2958    1.5506 H   0  0  0  0  0  0
    5.9134   -2.7674    2.4717 H   0  0  0  0  0  0
    8.0724   -3.7014    1.5843 H   0  0  0  0  0  0
    8.3252   -2.2373    0.6497 H   0  0  0  0  0  0
    8.3894   -0.8902    2.7729 H   0  0  0  0  0  0
    8.1303   -2.3521    3.7098 H   0  0  0  0  0  0
   10.2770   -3.3063    2.8139 H   0  0  0  0  0  0
   10.5364   -1.8451    1.8776 H   0  0  0  0  0  0
   11.8625   -1.7711    4.0059 H   0  0  0  0  0  0
   10.3799   -1.9615    4.9530 H   0  0  0  0  0  0
   10.6419   -0.4898    4.0098 H   0  0  0  0  0  0
  1  2  1  0  0  0
  1 20  1  0  0  0
  1 21  1  0  0  0
  1 22  1  0  0  0
  2  3  1  0  0  0
  2 23  1  0  0  0
  2 24  1  0  0  0
  3  4  1  0  0  0
  3 25  1  0  0  0
  3 26  1  0  0  0
  4  5  1  0  0  0
  4 27  1  0  0  0
  4 28  1  0  0  0
  5  6  1  0  0  0
  5 29  1  0  0  0
  5 30  1  0  0  0
  6  7  1  0  0  0
  6 31  1  0  0  0
  6 32  1  0  0  0
  7  8  1  0  0  0
  7 33  1  0  0  0
  7 34  1  0  0  0
  8  9  1  0  0  0
  8 35  1  0  0  0
  8 36  1  0  0  0
  9 10  1  0  0  0
  9 37  1  0  0  0
  9 38  1  0  0  0
 10 11  1  0  0  0
 10 39  1  0  0  0
 10 40  1  0  0  0
 11 12  1  0  0  0
 11 41  1  0  0  0
 11 42  1  0  0  0
 12 13  1  0  0  0
 12 43  1  0  0  0
 12 44  1  0  0  0
 13 14  1  0  0  0
 13 45  1  0  0  0
 13 46  1  0  0  0
 14 15  1  0  0  0
 14 47  1  0  0  0
 14 48  1  0  0  0
 15 16  1  0  0  0
 15 49  1  0  0  0
 15 50  1  0  0  0
 16 17  1  0  0  0
 16 51  1  0  0  0
 16 52  1  0  0  0
 17 18  1  0  0  0
 17 53  1  0  0  0
 17 54  1  0  0  0
 18 19  1  0  0  0
 18 55  1  0  0  0
 18 56  1  0  0  0
 19 57  1  0  0  0
 19 58  1  0  0  0
 19 59  1  0  0  0
M  END
>  <i_m_Spin_multiplicity> (1)
1

>  <s_j_Task> (1)
Single Point

>  <s_j_QM_Method> (1)
DFT(b3lyp-d3)

>  <s_j_QM_Basis> (1)
cc-pvtz(-f)

>  <i_j_Number_of_canonical_orbitals> (1)
791

>  <i_j_Geometry_convergence_category> (1)
0

>  <r_j_Gas_Phase_Energy> (1)
-748.463336469845

>  <r_j_Final_Energy> (1)
-748.463336469845

>  <r_j_HOMO> (1)
-0.252804412900351

>  <r_j_LUMO> (1)
0.00849175487138852

>  <r_j_Polarizability> (1)
237.462066175852

>  <r_j_QM_Dipole_(debye)> (1)
0.0669700821687047

>  <r_j_QM_Dipole_X_(debye)> (1)
-0.0407475668313584

>  <r_j_QM_Dipole_Y_(debye)> (1)
-0.0531446680930969

>  <r_j_QM_Dipole_Z_(debye)> (1)
0.0005214942776378

>  <r_j_Lowest_Frequency_(cm-1)> (1)
22.8277759280845

>  <r_j_Highest_Frequency_(cm-1)> (1)
3046.09745476121

>  <r_j_2nd_Lowest_Frequency_(cm-1)> (1)
41.7294655884052

>  <i_j_Num_Negative_Frequencies> (1)
0

>  <r_j_Zero_Point_Energy_(kcal/mol)> (1)
350.818328272983

>  <r_j_Entropy_(cal/mol/K)_298.15K_1.00E+00atm> (1)
159.967858613292

>  <r_j_Enthalpy_(kcal/mol)_298.15K_1.00E+00atm> (1)
15.4108585702457

>  <r_j_Free_Energy_(kcal/mol)_298.15K_1.00E+00atm> (1)
-32.2835584753073

>  <r_j_Internal_Energy_(kcal/mol)_298.15K_1.00E+00atm> (1)
14.8183729814185

>  <r_j_Heat_Capacity_(cal/mol/K)_298.15K_1.00E+00atm> (1)
90.2583476894989

>  <r_j_ln(Q)_298.15K_1.00E+00atm> (1)
54.4883438248804

>  <r_j_Total_Internal_Energy_(au)_298.15K_1.00E+00atm> (1)
-747.880657293299

>  <r_j_Total_Enthalpy_(au)_298.15K_1.00E+00atm> (1)
-747.879713107406

>  <r_j_Total_Free_Energy_(au)_298.15K_1.00E+00atm> (1)
-747.95571899947

>  <r_lp_tautomer_probability> (1)
1

>  <r_epik_Ionization_Penalty> (1)
  0.0000

>  <r_epik_Ionization_Penalty_Charging> (1)
  0.0000

>  <r_epik_Ionization_Penalty_Neutral> (1)
  0.0000

>  <r_epik_State_Penalty> (1)
  0.0000

>  <r_epik_Charging_Adjusted_Penalty> (1)
0

>  <i_epik_Tot_Q> (1)
0

>  <i_epik_Tot_abs_Q> (1)
0

>  <s_lp_Force_Field> (1)
S-OPLS

>  <r_lp_Energy> (1)
9.614888

>  <b_lp_Chiralities_Consistent> (1)
1

$$$$
