12407_N-hexacosane
                    3D
 Schrodinger Suite 2021-3.
 80 79  0  0  1  0            999 V2000
    2.6697   12.5735    6.3975 C   0  0  0  0  0  0
    2.2306   11.5299    5.3661 C   0  0  0  0  0  0
    0.8006   11.0237    5.5916 C   0  0  0  0  0  0
    0.3607    9.9766    4.5622 C   0  0  0  0  0  0
   -1.0696    9.4657    4.7830 C   0  0  0  0  0  0
   -1.5597    8.4800    3.7104 C   0  0  0  0  0  0
   -0.8136    7.1390    3.6875 C   0  0  0  0  0  0
   -1.3261    6.1851    2.6023 C   0  0  0  0  0  0
   -0.5935    4.8384    2.5732 C   0  0  0  0  0  0
   -1.0562    3.9246    1.4330 C   0  0  0  0  0  0
   -0.3441    2.5667    1.3997 C   0  0  0  0  0  0
   -0.7645    1.7075    0.1998 C   0  0  0  0  0  0
   -0.1601    0.2958    0.1709 C   0  0  0  0  0  0
    1.3727    0.2572    0.0913 C   0  0  0  0  0  0
    1.9212   -1.1516   -0.1650 C   0  0  0  0  0  0
    3.4530   -1.2265   -0.1722 C   0  0  0  0  0  0
    3.9797   -2.6139   -0.5613 C   0  0  0  0  0  0
    5.5129   -2.7239   -0.6128 C   0  0  0  0  0  0
    6.2375   -2.5032    0.7266 C   0  0  0  0  0  0
    5.8253   -3.4969    1.8231 C   0  0  0  0  0  0
    6.7084   -3.4572    3.0791 C   0  0  0  0  0  0
    6.6435   -2.1429    3.8687 C   0  0  0  0  0  0
    7.4782   -2.1832    5.1544 C   0  0  0  0  0  0
    7.4338   -0.8824    5.9637 C   0  0  0  0  0  0
    8.2715   -0.9407    7.2471 C   0  0  0  0  0  0
    8.2265    0.3588    8.0564 C   0  0  0  0  0  0
    3.6929   12.9172    6.2125 H   0  0  0  0  0  0
    2.6340   12.1631    7.4133 H   0  0  0  0  0  0
    2.0135   13.4512    6.3740 H   0  0  0  0  0  0
    2.3073   11.9558    4.3563 H   0  0  0  0  0  0
    2.9229   10.6770    5.3883 H   0  0  0  0  0  0
    0.7212   10.5979    6.6023 H   0  0  0  0  0  0
    0.1056   11.8755    5.5674 H   0  0  0  0  0  0
    0.4371   10.4059    3.5524 H   0  0  0  0  0  0
    1.0665    9.1362    4.5878 H   0  0  0  0  0  0
   -1.1380    8.9919    5.7729 H   0  0  0  0  0  0
   -1.7509   10.3270    4.8123 H   0  0  0  0  0  0
   -2.6296    8.2848    3.8652 H   0  0  0  0  0  0
   -1.4789    8.9550    2.7218 H   0  0  0  0  0  0
    0.2591    7.3095    3.5284 H   0  0  0  0  0  0
   -0.9024    6.6583    4.6726 H   0  0  0  0  0  0
   -2.4022    6.0106    2.7454 H   0  0  0  0  0  0
   -1.2274    6.6715    1.6211 H   0  0  0  0  0  0
    0.4877    5.0149    2.4780 H   0  0  0  0  0  0
   -0.7327    4.3257    3.5357 H   0  0  0  0  0  0
   -2.1410    3.7633    1.5112 H   0  0  0  0  0  0
   -0.8969    4.4389    0.4742 H   0  0  0  0  0  0
    0.7412    2.7315    1.3770 H   0  0  0  0  0  0
   -0.5501    2.0212    2.3320 H   0  0  0  0  0  0
   -1.8600    1.6238    0.1907 H   0  0  0  0  0  0
   -0.4940    2.2334   -0.7273 H   0  0  0  0  0  0
   -0.4874   -0.2602    1.0612 H   0  0  0  0  0  0
   -0.5733   -0.2446   -0.6918 H   0  0  0  0  0  0
    1.7126    0.9268   -0.7124 H   0  0  0  0  0  0
    1.8060    0.6524    1.0195 H   0  0  0  0  0  0
    1.5306   -1.8407    0.5978 H   0  0  0  0  0  0
    1.5340   -1.5170   -1.1270 H   0  0  0  0  0  0
    3.8533   -0.4806   -0.8743 H   0  0  0  0  0  0
    3.8296   -0.9431    0.8197 H   0  0  0  0  0  0
    3.5765   -3.3630    0.1330 H   0  0  0  0  0  0
    3.5778   -2.8776   -1.5490 H   0  0  0  0  0  0
    5.7803   -3.7193   -0.9933 H   0  0  0  0  0  0
    5.8957   -2.0032   -1.3485 H   0  0  0  0  0  0
    7.3194   -2.5913    0.5562 H   0  0  0  0  0  0
    6.0722   -1.4758    1.0729 H   0  0  0  0  0  0
    4.7815   -3.3177    2.1143 H   0  0  0  0  0  0
    5.8518   -4.5127    1.4044 H   0  0  0  0  0  0
    6.4165   -4.2815    3.7443 H   0  0  0  0  0  0
    7.7519   -3.6545    2.7938 H   0  0  0  0  0  0
    6.9887   -1.3106    3.2414 H   0  0  0  0  0  0
    5.5957   -1.9213    4.1191 H   0  0  0  0  0  0
    7.1307   -3.0139    5.7855 H   0  0  0  0  0  0
    8.5224   -2.4154    4.8998 H   0  0  0  0  0  0
    7.7856   -0.0498    5.3375 H   0  0  0  0  0  0
    6.3908   -0.6473    6.2210 H   0  0  0  0  0  0
    7.9189   -1.7741    7.8701 H   0  0  0  0  0  0
    9.3127   -1.1765    6.9876 H   0  0  0  0  0  0
    8.8327    0.2882    8.9657 H   0  0  0  0  0  0
    7.2006    0.6006    8.3574 H   0  0  0  0  0  0
    8.6046    1.2030    7.4682 H   0  0  0  0  0  0
  1  2  1  0  0  0
  1 27  1  0  0  0
  1 28  1  0  0  0
  1 29  1  0  0  0
  2  3  1  0  0  0
  2 30  1  0  0  0
  2 31  1  0  0  0
  3  4  1  0  0  0
  3 32  1  0  0  0
  3 33  1  0  0  0
  4  5  1  0  0  0
  4 34  1  0  0  0
  4 35  1  0  0  0
  5  6  1  0  0  0
  5 36  1  0  0  0
  5 37  1  0  0  0
  6  7  1  0  0  0
  6 38  1  0  0  0
  6 39  1  0  0  0
  7  8  1  0  0  0
  7 40  1  0  0  0
  7 41  1  0  0  0
  8  9  1  0  0  0
  8 42  1  0  0  0
  8 43  1  0  0  0
  9 10  1  0  0  0
  9 44  1  0  0  0
  9 45  1  0  0  0
 10 11  1  0  0  0
 10 46  1  0  0  0
 10 47  1  0  0  0
 11 12  1  0  0  0
 11 48  1  0  0  0
 11 49  1  0  0  0
 12 13  1  0  0  0
 12 50  1  0  0  0
 12 51  1  0  0  0
 13 14  1  0  0  0
 13 52  1  0  0  0
 13 53  1  0  0  0
 14 15  1  0  0  0
 14 54  1  0  0  0
 14 55  1  0  0  0
 15 16  1  0  0  0
 15 56  1  0  0  0
 15 57  1  0  0  0
 16 17  1  0  0  0
 16 58  1  0  0  0
 16 59  1  0  0  0
 17 18  1  0  0  0
 17 60  1  0  0  0
 17 61  1  0  0  0
 18 19  1  0  0  0
 18 62  1  0  0  0
 18 63  1  0  0  0
 19 20  1  0  0  0
 19 64  1  0  0  0
 19 65  1  0  0  0
 20 21  1  0  0  0
 20 66  1  0  0  0
 20 67  1  0  0  0
 21 22  1  0  0  0
 21 68  1  0  0  0
 21 69  1  0  0  0
 22 23  1  0  0  0
 22 70  1  0  0  0
 22 71  1  0  0  0
 23 24  1  0  0  0
 23 72  1  0  0  0
 23 73  1  0  0  0
 24 25  1  0  0  0
 24 74  1  0  0  0
 24 75  1  0  0  0
 25 26  1  0  0  0
 25 76  1  0  0  0
 25 77  1  0  0  0
 26 78  1  0  0  0
 26 79  1  0  0  0
 26 80  1  0  0  0
M  END
>  <i_m_Spin_multiplicity> (1)
1

>  <s_j_Task> (1)
Single Point

>  <s_j_QM_Method> (1)
DFT(b3lyp-d3)

>  <s_j_QM_Basis> (1)
cc-pvtz(-f)

>  <i_j_Number_of_canonical_orbitals> (1)
1076

>  <i_j_Geometry_convergence_category> (1)
4

>  <r_j_Gas_Phase_Energy> (1)
-1023.76699379626

>  <r_j_Final_Energy> (1)
-1023.76699379626

>  <r_j_HOMO> (1)
-0.275528286513274

>  <r_j_LUMO> (1)
-0.00551094111642398

>  <r_j_Polarizability> (1)
321.750810023348

>  <r_j_QM_Dipole_(debye)> (1)
0.128178017282691

>  <r_j_QM_Dipole_X_(debye)> (1)
0.0161461227770264

>  <r_j_QM_Dipole_Y_(debye)> (1)
-0.105703391685297

>  <r_j_QM_Dipole_Z_(debye)> (1)
-0.0706802647138199

>  <r_j_Lowest_Frequency_(cm-1)> (1)
14.5407770751396

>  <r_j_Highest_Frequency_(cm-1)> (1)
3045.08421420011

>  <r_j_2nd_Lowest_Frequency_(cm-1)> (1)
23.9751306601972

>  <i_j_Num_Negative_Frequencies> (1)
0

>  <r_j_Zero_Point_Energy_(kcal/mol)> (1)
476.224639577151

>  <r_j_Entropy_(cal/mol/K)_298.15K_1.00E+00atm> (1)
195.415086887021

>  <r_j_Enthalpy_(kcal/mol)_298.15K_1.00E+00atm> (1)
20.587535669459

>  <r_j_Free_Energy_(kcal/mol)_298.15K_1.00E+00atm> (1)
-37.6754724859063

>  <r_j_Internal_Energy_(kcal/mol)_298.15K_1.00E+00atm> (1)
19.9950500806317

>  <r_j_Heat_Capacity_(cal/mol/K)_298.15K_1.00E+00atm> (1)
123.221673867921

>  <r_j_ln(Q)_298.15K_1.00E+00atm> (1)
63.5888419842894

>  <r_j_Total_Internal_Energy_(au)_298.15K_1.00E+00atm> (1)
-1022.97621738031

>  <r_j_Total_Enthalpy_(au)_298.15K_1.00E+00atm> (1)
-1022.97527319442

>  <r_j_Total_Free_Energy_(au)_298.15K_1.00E+00atm> (1)
-1023.06812120858

>  <r_lp_tautomer_probability> (1)
1

>  <r_epik_Ionization_Penalty> (1)
  0.0000

>  <r_epik_Ionization_Penalty_Charging> (1)
  0.0000

>  <r_epik_Ionization_Penalty_Neutral> (1)
  0.0000

>  <r_epik_State_Penalty> (1)
  0.0000

>  <r_epik_Charging_Adjusted_Penalty> (1)
0

>  <i_epik_Tot_Q> (1)
0

>  <i_epik_Tot_abs_Q> (1)
0

>  <s_lp_Force_Field> (1)
S-OPLS

>  <r_lp_Energy> (1)
14.891465

>  <b_lp_Chiralities_Consistent> (1)
1

$$$$
