12406_n-Pentacosane
                    3D
 Schrodinger Suite 2021-3.
 77 76  0  0  1  0            999 V2000
   -0.9172    2.3380  -12.9742 C   0  0  0  0  0  0
   -0.5009    2.9849  -11.6500 C   0  0  0  0  0  0
   -0.8427    2.1263  -10.4261 C   0  0  0  0  0  0
   -0.4295    2.7712   -9.0985 C   0  0  0  0  0  0
   -0.7669    1.9206   -7.8685 C   0  0  0  0  0  0
   -0.3500    2.5779   -6.5478 C   0  0  0  0  0  0
   -0.6814    1.7378   -5.3093 C   0  0  0  0  0  0
   -0.2597    2.4060   -3.9956 C   0  0  0  0  0  0
   -0.5854    1.5735   -2.7502 C   0  0  0  0  0  0
   -0.1413    2.2474   -1.4459 C   0  0  0  0  0  0
   -0.5337    1.4840   -0.1698 C   0  0  0  0  0  0
   -0.0044    0.0429   -0.0748 C   0  0  0  0  0  0
    1.5226   -0.0799   -0.1543 C   0  0  0  0  0  0
    2.0177   -1.5177    0.0400 C   0  0  0  0  0  0
    3.5425   -1.6606   -0.0352 C   0  0  0  0  0  0
    4.0217   -3.1031    0.1657 C   0  0  0  0  0  0
    5.5485   -3.2521    0.1248 C   0  0  0  0  0  0
    6.0459   -4.7020    0.2417 C   0  0  0  0  0  0
    5.7187   -5.3774    1.5802 C   0  0  0  0  0  0
    6.2660   -6.8053    1.6935 C   0  0  0  0  0  0
    5.9050   -7.4840    3.0200 C   0  0  0  0  0  0
    6.4095   -8.9276    3.1327 C   0  0  0  0  0  0
    6.0225   -9.5945    4.4598 C   0  0  0  0  0  0
    6.4153  -11.0762    4.5699 C   0  0  0  0  0  0
    7.9279  -11.3265    4.5634 C   0  0  0  0  0  0
   -0.6610    2.9710  -13.8302 H   0  0  0  0  0  0
   -1.9984    2.1595  -13.0031 H   0  0  0  0  0  0
   -0.4204    1.3710  -13.1140 H   0  0  0  0  0  0
    0.5796    3.1832  -11.6609 H   0  0  0  0  0  0
   -0.9873    3.9649  -11.5503 H   0  0  0  0  0  0
   -1.9239    1.9260  -10.4138 H   0  0  0  0  0  0
   -0.3553    1.1455  -10.5230 H   0  0  0  0  0  0
    0.6514    2.9724   -9.1142 H   0  0  0  0  0  0
   -0.9170    3.7523   -9.0051 H   0  0  0  0  0  0
   -1.8475    1.7189   -7.8501 H   0  0  0  0  0  0
   -0.2779    0.9400   -7.9581 H   0  0  0  0  0  0
    0.7304    2.7807   -6.5694 H   0  0  0  0  0  0
   -0.8387    3.5590   -6.4615 H   0  0  0  0  0  0
   -1.7617    1.5349   -5.2846 H   0  0  0  0  0  0
   -0.1917    0.7569   -5.3926 H   0  0  0  0  0  0
    0.8209    2.6081   -4.0228 H   0  0  0  0  0  0
   -0.7476    3.3880   -3.9148 H   0  0  0  0  0  0
   -1.6672    1.3800   -2.7112 H   0  0  0  0  0  0
   -0.1054    0.5901   -2.8437 H   0  0  0  0  0  0
    0.9465    2.3957   -1.4709 H   0  0  0  0  0  0
   -0.5774    3.2544   -1.3982 H   0  0  0  0  0  0
   -0.1785    2.0507    0.7016 H   0  0  0  0  0  0
   -1.6292    1.4612   -0.0927 H   0  0  0  0  0  0
   -0.3477   -0.3926    0.8733 H   0  0  0  0  0  0
   -0.4558   -0.5722   -0.8647 H   0  0  0  0  0  0
    1.8770    0.2914   -1.1252 H   0  0  0  0  0  0
    1.9808    0.5709    0.6046 H   0  0  0  0  0  0
    1.6668   -1.8943    1.0116 H   0  0  0  0  0  0
    1.5548   -2.1654   -0.7186 H   0  0  0  0  0  0
    3.8976   -1.2882   -1.0069 H   0  0  0  0  0  0
    4.0059   -1.0141    0.7239 H   0  0  0  0  0  0
    3.6366   -3.4723    1.1250 H   0  0  0  0  0  0
    3.5752   -3.7456   -0.6073 H   0  0  0  0  0  0
    5.9215   -2.8222   -0.8148 H   0  0  0  0  0  0
    5.9924   -2.6499    0.9307 H   0  0  0  0  0  0
    5.6180   -5.2980   -0.5774 H   0  0  0  0  0  0
    7.1341   -4.7196    0.0923 H   0  0  0  0  0  0
    6.1200   -4.7660    2.4017 H   0  0  0  0  0  0
    4.6313   -5.4051    1.7272 H   0  0  0  0  0  0
    5.8782   -7.4087    0.8600 H   0  0  0  0  0  0
    7.3587   -6.7913    1.5736 H   0  0  0  0  0  0
    6.3088   -6.8912    3.8534 H   0  0  0  0  0  0
    4.8125   -7.4729    3.1447 H   0  0  0  0  0  0
    6.0046   -9.5198    2.2991 H   0  0  0  0  0  0
    7.5004   -8.9372    3.0102 H   0  0  0  0  0  0
    6.4773   -9.0363    5.2911 H   0  0  0  0  0  0
    4.9358   -9.5051    4.5940 H   0  0  0  0  0  0
    5.9894  -11.4864    5.4945 H   0  0  0  0  0  0
    5.9483  -11.6343    3.7467 H   0  0  0  0  0  0
    8.1546  -12.3885    4.7048 H   0  0  0  0  0  0
    8.4202  -10.7704    5.3700 H   0  0  0  0  0  0
    8.3873  -11.0153    3.6197 H   0  0  0  0  0  0
  1  2  1  0  0  0
  1 26  1  0  0  0
  1 27  1  0  0  0
  1 28  1  0  0  0
  2  3  1  0  0  0
  2 29  1  0  0  0
  2 30  1  0  0  0
  3  4  1  0  0  0
  3 31  1  0  0  0
  3 32  1  0  0  0
  4  5  1  0  0  0
  4 33  1  0  0  0
  4 34  1  0  0  0
  5  6  1  0  0  0
  5 35  1  0  0  0
  5 36  1  0  0  0
  6  7  1  0  0  0
  6 37  1  0  0  0
  6 38  1  0  0  0
  7  8  1  0  0  0
  7 39  1  0  0  0
  7 40  1  0  0  0
  8  9  1  0  0  0
  8 41  1  0  0  0
  8 42  1  0  0  0
  9 10  1  0  0  0
  9 43  1  0  0  0
  9 44  1  0  0  0
 10 11  1  0  0  0
 10 45  1  0  0  0
 10 46  1  0  0  0
 11 12  1  0  0  0
 11 47  1  0  0  0
 11 48  1  0  0  0
 12 13  1  0  0  0
 12 49  1  0  0  0
 12 50  1  0  0  0
 13 14  1  0  0  0
 13 51  1  0  0  0
 13 52  1  0  0  0
 14 15  1  0  0  0
 14 53  1  0  0  0
 14 54  1  0  0  0
 15 16  1  0  0  0
 15 55  1  0  0  0
 15 56  1  0  0  0
 16 17  1  0  0  0
 16 57  1  0  0  0
 16 58  1  0  0  0
 17 18  1  0  0  0
 17 59  1  0  0  0
 17 60  1  0  0  0
 18 19  1  0  0  0
 18 61  1  0  0  0
 18 62  1  0  0  0
 19 20  1  0  0  0
 19 63  1  0  0  0
 19 64  1  0  0  0
 20 21  1  0  0  0
 20 65  1  0  0  0
 20 66  1  0  0  0
 21 22  1  0  0  0
 21 67  1  0  0  0
 21 68  1  0  0  0
 22 23  1  0  0  0
 22 69  1  0  0  0
 22 70  1  0  0  0
 23 24  1  0  0  0
 23 71  1  0  0  0
 23 72  1  0  0  0
 24 25  1  0  0  0
 24 73  1  0  0  0
 24 74  1  0  0  0
 25 75  1  0  0  0
 25 76  1  0  0  0
 25 77  1  0  0  0
M  END
> <i_m_Spin_multiplicity>
1

> <s_j_Task>
Single Point

> <s_j_QM_Method>
DFT(b3lyp-d3)

> <s_j_QM_Basis>
cc-pvtz(-f)

> <i_j_Number_of_canonical_orbitals>
1036

> <i_j_Geometry_convergence_category>
1

> <r_j_Gas_Phase_Energy>
-984.438560636832

> <r_j_Final_Energy>
-984.438560636832

> <r_j_HOMO>
-0.23949362588708

> <r_j_LUMO>
-0.0457139267399997

> <r_j_Polarizability>
311.414887914042

> <r_j_QM_Dipole_(debye)>
0.0841864472163344

> <r_j_QM_Dipole_X_(debye)>
-0.0428289196545677

> <r_j_QM_Dipole_Y_(debye)>
0.037316411121558

> <r_j_QM_Dipole_Z_(debye)>
0.0621331392828183

> <r_j_Lowest_Frequency_(cm-1)>
22.3760483435778

> <r_j_Highest_Frequency_(cm-1)>
3050.84133178987

> <r_j_2nd_Lowest_Frequency_(cm-1)>
30.4210241652766

> <i_j_Num_Negative_Frequencies>
0

> <r_j_Zero_Point_Energy_(kcal/mol)>
458.315709961059

> <r_j_Entropy_(cal/mol/K)_298.15K_1.00E+00atm>
190.621456771701

> <r_j_Enthalpy_(kcal/mol)_298.15K_1.00E+00atm>
19.8598110442028

> <r_j_Free_Energy_(kcal/mol)_298.15K_1.00E+00atm>
-36.9739762922797

> <r_j_Internal_Energy_(kcal/mol)_298.15K_1.00E+00atm>
19.2673254553755

> <r_j_Heat_Capacity_(cal/mol/K)_298.15K_1.00E+00atm>
118.520404211937

> <r_j_ln(Q)_298.15K_1.00E+00atm>
62.4048533660768

> <r_j_Total_Internal_Energy_(au)_298.15K_1.00E+00atm>
-983.677483620071

> <r_j_Total_Enthalpy_(au)_298.15K_1.00E+00atm>
-983.676539434179

> <r_j_Total_Free_Energy_(au)_298.15K_1.00E+00atm>
-983.767109839972

> <r_lp_tautomer_probability>
1

> <r_epik_Ionization_Penalty>
  0.0000

> <r_epik_Ionization_Penalty_Charging>
  0.0000

> <r_epik_Ionization_Penalty_Neutral>
  0.0000

> <r_epik_State_Penalty>
  0.0000

> <r_epik_Charging_Adjusted_Penalty>
0

> <i_epik_Tot_Q>
0

> <i_epik_Tot_abs_Q>
0

> <s_lp_Force_Field>
S-OPLS

> <r_lp_Energy>
13.562723

> <b_lp_Chiralities_Consistent>
1

$$$$
