12410_N-hentriacontane
                    3D
 Schrodinger Suite 2021-3.
 95 94  0  0  1  0            999 V2000
   -2.1032    9.7239   -8.1380 C   0  0  0  0  0  0
   -2.3270    8.8979   -6.8679 C   0  0  0  0  0  0
   -3.8087    8.7372   -6.5059 C   0  0  0  0  0  0
   -4.0334    7.9072   -5.2370 C   0  0  0  0  0  0
   -5.5140    7.7413   -4.8677 C   0  0  0  0  0  0
   -5.7588    6.8299   -3.6543 C   0  0  0  0  0  0
   -5.2367    7.3966   -2.3254 C   0  0  0  0  0  0
   -5.5020    6.4961   -1.1083 C   0  0  0  0  0  0
   -4.7398    5.1638   -1.1383 C   0  0  0  0  0  0
   -4.9190    4.3368    0.1419 C   0  0  0  0  0  0
   -4.2532    2.9523    0.0976 C   0  0  0  0  0  0
   -2.7224    2.9839   -0.0111 C   0  0  0  0  0  0
   -2.0894    1.5875    0.0003 C   0  0  0  0  0  0
   -0.5594    1.6071   -0.1020 C   0  0  0  0  0  0
    0.0646    0.2067   -0.1103 C   0  0  0  0  0  0
    1.5962    0.2140   -0.1833 C   0  0  0  0  0  0
    2.2050   -1.1930   -0.1988 C   0  0  0  0  0  0
    3.7378   -1.2037   -0.2294 C   0  0  0  0  0  0
    4.3294   -2.6181   -0.2414 C   0  0  0  0  0  0
    5.8622   -2.6473   -0.2218 C   0  0  0  0  0  0
    6.4307   -4.0728   -0.2175 C   0  0  0  0  0  0
    7.9651   -4.1517   -0.2277 C   0  0  0  0  0  0
    8.6311   -3.5551    1.0225 C   0  0  0  0  0  0
   10.1294   -3.8699    1.1480 C   0  0  0  0  0  0
   11.0026   -3.2874    0.0284 C   0  0  0  0  0  0
   12.4962   -3.5641    0.2358 C   0  0  0  0  0  0
   13.3893   -3.0103   -0.8802 C   0  0  0  0  0  0
   14.8784   -3.2999   -0.6579 C   0  0  0  0  0  0
   15.7854   -2.7605   -1.7694 C   0  0  0  0  0  0
   17.2716   -3.0581   -1.5360 C   0  0  0  0  0  0
   18.1755   -2.5212   -2.6496 C   0  0  0  0  0  0
   -1.0380    9.8222   -8.3723 H   0  0  0  0  0  0
   -2.5155   10.7337   -8.0293 H   0  0  0  0  0  0
   -2.5933    9.2595   -9.0016 H   0  0  0  0  0  0
   -1.8764    7.9036   -6.9916 H   0  0  0  0  0  0
   -1.7989    9.3667   -6.0262 H   0  0  0  0  0  0
   -4.2614    9.7311   -6.3776 H   0  0  0  0  0  0
   -4.3399    8.2699   -7.3478 H   0  0  0  0  0  0
   -3.5832    6.9125   -5.3703 H   0  0  0  0  0  0
   -3.4903    8.3757   -4.4059 H   0  0  0  0  0  0
   -5.9555    8.7305   -4.6786 H   0  0  0  0  0  0
   -6.0495    7.3311   -5.7347 H   0  0  0  0  0  0
   -6.8368    6.6422   -3.5547 H   0  0  0  0  0  0
   -5.2975    5.8531   -3.8508 H   0  0  0  0  0  0
   -4.1564    7.5800   -2.3963 H   0  0  0  0  0  0
   -5.7010    8.3782   -2.1572 H   0  0  0  0  0  0
   -5.2230    7.0410   -0.1960 H   0  0  0  0  0  0
   -6.5804    6.2979   -1.0254 H   0  0  0  0  0  0
   -5.0684    4.5624   -1.9963 H   0  0  0  0  0  0
   -3.6742    5.3716   -1.3030 H   0  0  0  0  0  0
   -4.5252    4.9033    0.9981 H   0  0  0  0  0  0
   -5.9934    4.2084    0.3324 H   0  0  0  0  0  0
   -4.5311    2.3937    1.0018 H   0  0  0  0  0  0
   -4.6632    2.3817   -0.7484 H   0  0  0  0  0  0
   -2.4227    3.5019   -0.9315 H   0  0  0  0  0  0
   -2.3130    3.5780    0.8190 H   0  0  0  0  0  0
   -2.3846    1.0607    0.9192 H   0  0  0  0  0  0
   -2.5011    0.9970   -0.8310 H   0  0  0  0  0  0
   -0.2616    2.1436   -1.0144 H   0  0  0  0  0  0
   -0.1464    2.1853    0.7371 H   0  0  0  0  0  0
   -0.2510   -0.3358    0.7926 H   0  0  0  0  0  0
   -0.3371   -0.3638   -0.9601 H   0  0  0  0  0  0
    1.9174    0.7609   -1.0814 H   0  0  0  0  0  0
    1.9979    0.7753    0.6726 H   0  0  0  0  0  0
    1.8589   -1.7460    0.6864 H   0  0  0  0  0  0
    1.8198   -1.7453   -1.0681 H   0  0  0  0  0  0
    4.0912   -0.6516   -1.1121 H   0  0  0  0  0  0
    4.1217   -0.6562    0.6435 H   0  0  0  0  0  0
    3.9487   -3.1753    0.6268 H   0  0  0  0  0  0
    3.9652   -3.1570   -1.1279 H   0  0  0  0  0  0
    6.2524   -2.1025   -1.0939 H   0  0  0  0  0  0
    6.2173   -2.1008    0.6616 H   0  0  0  0  0  0
    6.0495   -4.6080    0.6644 H   0  0  0  0  0  0
    6.0392   -4.6120   -1.0910 H   0  0  0  0  0  0
    8.2640   -5.2055   -0.3171 H   0  0  0  0  0  0
    8.3452   -3.6508   -1.1279 H   0  0  0  0  0  0
    8.4919   -2.4660    1.0352 H   0  0  0  0  0  0
    8.1140   -3.9379    1.9135 H   0  0  0  0  0  0
   10.4932   -3.4906    2.1128 H   0  0  0  0  0  0
   10.2674   -4.9605    1.1800 H   0  0  0  0  0  0
   10.6927   -3.7000   -0.9407 H   0  0  0  0  0  0
   10.8360   -2.2022   -0.0356 H   0  0  0  0  0  0
   12.8138   -3.1392    1.1989 H   0  0  0  0  0  0
   12.6538   -4.6492    0.3192 H   0  0  0  0  0  0
   13.0750   -3.4365   -1.8438 H   0  0  0  0  0  0
   13.2371   -1.9248   -0.9654 H   0  0  0  0  0  0
   15.1909   -2.8709    0.3051 H   0  0  0  0  0  0
   15.0257   -4.3857   -0.5657 H   0  0  0  0  0  0
   15.4761   -3.1897   -2.7334 H   0  0  0  0  0  0
   15.6426   -1.6742   -1.8628 H   0  0  0  0  0  0
   17.5788   -2.6275   -0.5730 H   0  0  0  0  0  0
   17.4112   -4.1436   -1.4402 H   0  0  0  0  0  0
   19.2296   -2.7472   -2.4572 H   0  0  0  0  0  0
   18.0796   -1.4334   -2.7453 H   0  0  0  0  0  0
   17.9114   -2.9612   -3.6182 H   0  0  0  0  0  0
  1  2  1  0  0  0
  1 32  1  0  0  0
  1 33  1  0  0  0
  1 34  1  0  0  0
  2  3  1  0  0  0
  2 35  1  0  0  0
  2 36  1  0  0  0
  3  4  1  0  0  0
  3 37  1  0  0  0
  3 38  1  0  0  0
  4  5  1  0  0  0
  4 39  1  0  0  0
  4 40  1  0  0  0
  5  6  1  0  0  0
  5 41  1  0  0  0
  5 42  1  0  0  0
  6  7  1  0  0  0
  6 43  1  0  0  0
  6 44  1  0  0  0
  7  8  1  0  0  0
  7 45  1  0  0  0
  7 46  1  0  0  0
  8  9  1  0  0  0
  8 47  1  0  0  0
  8 48  1  0  0  0
  9 10  1  0  0  0
  9 49  1  0  0  0
  9 50  1  0  0  0
 10 11  1  0  0  0
 10 51  1  0  0  0
 10 52  1  0  0  0
 11 12  1  0  0  0
 11 53  1  0  0  0
 11 54  1  0  0  0
 12 13  1  0  0  0
 12 55  1  0  0  0
 12 56  1  0  0  0
 13 14  1  0  0  0
 13 57  1  0  0  0
 13 58  1  0  0  0
 14 15  1  0  0  0
 14 59  1  0  0  0
 14 60  1  0  0  0
 15 16  1  0  0  0
 15 61  1  0  0  0
 15 62  1  0  0  0
 16 17  1  0  0  0
 16 63  1  0  0  0
 16 64  1  0  0  0
 17 18  1  0  0  0
 17 65  1  0  0  0
 17 66  1  0  0  0
 18 19  1  0  0  0
 18 67  1  0  0  0
 18 68  1  0  0  0
 19 20  1  0  0  0
 19 69  1  0  0  0
 19 70  1  0  0  0
 20 21  1  0  0  0
 20 71  1  0  0  0
 20 72  1  0  0  0
 21 22  1  0  0  0
 21 73  1  0  0  0
 21 74  1  0  0  0
 22 23  1  0  0  0
 22 75  1  0  0  0
 22 76  1  0  0  0
 23 24  1  0  0  0
 23 77  1  0  0  0
 23 78  1  0  0  0
 24 25  1  0  0  0
 24 79  1  0  0  0
 24 80  1  0  0  0
 25 26  1  0  0  0
 25 81  1  0  0  0
 25 82  1  0  0  0
 26 27  1  0  0  0
 26 83  1  0  0  0
 26 84  1  0  0  0
 27 28  1  0  0  0
 27 85  1  0  0  0
 27 86  1  0  0  0
 28 29  1  0  0  0
 28 87  1  0  0  0
 28 88  1  0  0  0
 29 30  1  0  0  0
 29 89  1  0  0  0
 29 90  1  0  0  0
 30 31  1  0  0  0
 30 91  1  0  0  0
 30 92  1  0  0  0
 31 93  1  0  0  0
 31 94  1  0  0  0
 31 95  1  0  0  0
M  END
>  <i_m_Spin_multiplicity> (1)
1

>  <s_j_Task> (1)
Single Point

>  <s_j_QM_Method> (1)
DFT(b3lyp-d3)

>  <s_j_QM_Basis> (1)
cc-pvtz(-f)

>  <i_j_Number_of_canonical_orbitals> (1)
1278

>  <i_j_Geometry_convergence_category> (1)
3

>  <r_j_Gas_Phase_Energy> (1)
-1220.41376178227

>  <r_j_Final_Energy> (1)
-1220.41376178227

>  <r_j_HOMO> (1)
-0.230560662536459

>  <r_j_LUMO> (1)
0.0136849031602661

>  <r_j_Polarizability> (1)
386.69719233944

>  <r_j_QM_Dipole_(debye)> (1)
0.11356687631864

>  <r_j_QM_Dipole_X_(debye)> (1)
-0.0210063844944246

>  <r_j_QM_Dipole_Y_(debye)> (1)
-0.0533337268669497

>  <r_j_QM_Dipole_Z_(debye)> (1)
0.0980391798503394

>  <r_j_Lowest_Frequency_(cm-1)> (1)
14.8678119602393

>  <r_j_Highest_Frequency_(cm-1)> (1)
3045.27051051621

>  <r_j_2nd_Lowest_Frequency_(cm-1)> (1)
21.0992181340104

>  <i_j_Num_Negative_Frequencies> (1)
0

>  <r_j_Zero_Point_Energy_(kcal/mol)> (1)
565.504573360529

>  <r_j_Entropy_(cal/mol/K)_298.15K_1.00E+00atm> (1)
222.283363230662

>  <r_j_Enthalpy_(kcal/mol)_298.15K_1.00E+00atm> (1)
24.4536316307569

>  <r_j_Free_Energy_(kcal/mol)_298.15K_1.00E+00atm> (1)
-41.8201531164649

>  <r_j_Internal_Energy_(kcal/mol)_298.15K_1.00E+00atm> (1)
23.8611460419296

>  <r_j_Heat_Capacity_(cal/mol/K)_298.15K_1.00E+00atm> (1)
147.024835636646

>  <r_j_ln(Q)_298.15K_1.00E+00atm> (1)
70.5842537018341

>  <r_j_Total_Internal_Energy_(au)_298.15K_1.00E+00atm> (1)
-1219.47454771846

>  <r_j_Total_Enthalpy_(au)_298.15K_1.00E+00atm> (1)
-1219.47360353256

>  <r_j_Total_Free_Energy_(au)_298.15K_1.00E+00atm> (1)
-1219.5792175319

>  <r_lp_tautomer_probability> (1)
1

>  <r_epik_Ionization_Penalty> (1)
  0.0000

>  <r_epik_Ionization_Penalty_Charging> (1)
  0.0000

>  <r_epik_Ionization_Penalty_Neutral> (1)
  0.0000

>  <r_epik_State_Penalty> (1)
  0.0000

>  <r_epik_Charging_Adjusted_Penalty> (1)
0

>  <i_epik_Tot_Q> (1)
0

>  <i_epik_Tot_abs_Q> (1)
0

>  <s_lp_Force_Field> (1)
S-OPLS

>  <r_lp_Energy> (1)
17.781593

>  <b_lp_Chiralities_Consistent> (1)
1

$$$$
