12412_Hexatriacontane
                    3D
 Schrodinger Suite 2021-3.
110109  0  0  1  0            999 V2000
    2.5149   16.4618    5.0614 C   0  0  0  0  0  0
    1.1205   15.9034    5.3608 C   0  0  0  0  0  0
    0.7807   14.6554    4.5368 C   0  0  0  0  0  0
   -0.6149   14.0954    4.8337 C   0  0  0  0  0  0
   -0.9699   12.8518    4.0102 C   0  0  0  0  0  0
   -2.3727   12.3114    4.3109 C   0  0  0  0  0  0
   -2.7525   11.0805    3.4795 C   0  0  0  0  0  0
   -4.1677   10.5695    3.7832 C   0  0  0  0  0  0
   -4.6342    9.4075    2.8935 C   0  0  0  0  0  0
   -3.8595    8.0965    3.0858 C   0  0  0  0  0  0
   -4.4144    6.9522    2.2293 C   0  0  0  0  0  0
   -3.6832    5.6178    2.4197 C   0  0  0  0  0  0
   -4.2565    4.5013    1.5361 C   0  0  0  0  0  0
   -3.6355    3.1145    1.7588 C   0  0  0  0  0  0
   -2.1420    3.0167    1.4174 C   0  0  0  0  0  0
   -1.6138    1.5781    1.4728 C   0  0  0  0  0  0
   -0.1166    1.4548    1.1655 C   0  0  0  0  0  0
    0.3683    0.0006    1.1186 C   0  0  0  0  0  0
    1.8717   -0.1344    0.8413 C   0  0  0  0  0  0
    2.3716   -1.5865    0.7583 C   0  0  0  0  0  0
    1.8550   -2.3583   -0.4638 C   0  0  0  0  0  0
    2.3926   -3.7913   -0.5579 C   0  0  0  0  0  0
    1.9044   -4.5261   -1.8142 C   0  0  0  0  0  0
    2.4467   -5.9544   -1.9767 C   0  0  0  0  0  0
    1.9304   -6.9572   -0.9356 C   0  0  0  0  0  0
    2.4285   -8.3859   -1.1847 C   0  0  0  0  0  0
    1.8818   -9.4131   -0.1863 C   0  0  0  0  0  0
    2.3938  -10.8354   -0.4533 C   0  0  0  0  0  0
    1.7662  -11.9205    0.4345 C   0  0  0  0  0  0
    2.0881  -11.7955    1.9299 C   0  0  0  0  0  0
    1.5168  -12.9527    2.7580 C   0  0  0  0  0  0
    1.8214  -12.8521    4.2571 C   0  0  0  0  0  0
    1.2483  -14.0217    5.0660 C   0  0  0  0  0  0
    1.5438  -13.9386    6.5676 C   0  0  0  0  0  0
    0.9674  -15.1156    7.3641 C   0  0  0  0  0  0
    1.2629  -15.0299    8.8644 C   0  0  0  0  0  0
    2.7305   17.3512    5.6627 H   0  0  0  0  0  0
    2.6090   16.7420    4.0058 H   0  0  0  0  0  0
    3.2917   15.7184    5.2749 H   0  0  0  0  0  0
    1.0424   15.6622    6.4298 H   0  0  0  0  0  0
    0.3654   16.6782    5.1695 H   0  0  0  0  0  0
    0.8574   14.8953    3.4664 H   0  0  0  0  0  0
    1.5347   13.8779    4.7268 H   0  0  0  0  0  0
   -0.6890   13.8549    5.9041 H   0  0  0  0  0  0
   -1.3653   14.8776    4.6482 H   0  0  0  0  0  0
   -0.8941   13.0907    2.9396 H   0  0  0  0  0  0
   -0.2261   12.0642    4.1980 H   0  0  0  0  0  0
   -2.4452   12.0644    5.3800 H   0  0  0  0  0  0
   -3.1109   13.1073    4.1355 H   0  0  0  0  0  0
   -2.6799   11.3274    2.4102 H   0  0  0  0  0  0
   -2.0179   10.2844    3.6582 H   0  0  0  0  0  0
   -4.2248   10.2656    4.8385 H   0  0  0  0  0  0
   -4.8728   11.4046    3.6713 H   0  0  0  0  0  0
   -5.6980    9.2165    3.0905 H   0  0  0  0  0  0
   -4.5725    9.7124    1.8388 H   0  0  0  0  0  0
   -2.7992    8.2455    2.8428 H   0  0  0  0  0  0
   -3.8920    7.8088    4.1469 H   0  0  0  0  0  0
   -5.4810    6.8138    2.4585 H   0  0  0  0  0  0
   -4.3701    7.2407    1.1691 H   0  0  0  0  0  0
   -2.6158    5.7568    2.2031 H   0  0  0  0  0  0
   -3.7436    5.3146    3.4751 H   0  0  0  0  0  0
   -5.3390    4.4350    1.7121 H   0  0  0  0  0  0
   -4.1392    4.7836    0.4798 H   0  0  0  0  0  0
   -3.7867    2.8110    2.8048 H   0  0  0  0  0  0
   -4.1841    2.3828    1.1498 H   0  0  0  0  0  0
   -1.9725    3.4246    0.4101 H   0  0  0  0  0  0
   -1.5575    3.6449    2.1024 H   0  0  0  0  0  0
   -1.8153    1.1530    2.4667 H   0  0  0  0  0  0
   -2.1808    0.9609    0.7609 H   0  0  0  0  0  0
    0.0979    1.9367    0.2006 H   0  0  0  0  0  0
    0.4592    2.0129    1.9176 H   0  0  0  0  0  0
    0.1335   -0.4946    2.0721 H   0  0  0  0  0  0
   -0.2040   -0.5352    0.3503 H   0  0  0  0  0  0
    2.1159    0.3835   -0.0976 H   0  0  0  0  0  0
    2.4246    0.3927    1.6305 H   0  0  0  0  0  0
    3.4698   -1.5862    0.7343 H   0  0  0  0  0  0
    2.0884   -2.1223    1.6759 H   0  0  0  0  0  0
    0.7578   -2.3934   -0.4499 H   0  0  0  0  0  0
    2.1281   -1.8073   -1.3757 H   0  0  0  0  0  0
    3.4922   -3.7721   -0.5557 H   0  0  0  0  0  0
    2.0962   -4.3451    0.3428 H   0  0  0  0  0  0
    0.8050   -4.5552   -1.8127 H   0  0  0  0  0  0
    2.1887   -3.9358   -2.6959 H   0  0  0  0  0  0
    2.1802   -6.3223   -2.9770 H   0  0  0  0  0  0
    3.5458   -5.9319   -1.9463 H   0  0  0  0  0  0
    2.2293   -6.6424    0.0729 H   0  0  0  0  0  0
    0.8306   -6.9491   -0.9431 H   0  0  0  0  0  0
    2.1522   -8.6926   -2.2040 H   0  0  0  0  0  0
    3.5277   -8.3978   -1.1544 H   0  0  0  0  0  0
    2.1474   -9.1024    0.8327 H   0  0  0  0  0  0
    0.7828   -9.4105   -0.2283 H   0  0  0  0  0  0
    2.2003  -11.0863   -1.5052 H   0  0  0  0  0  0
    3.4868  -10.8548   -0.3342 H   0  0  0  0  0  0
    0.6749  -11.9118    0.2989 H   0  0  0  0  0  0
    2.1057  -12.9047    0.0835 H   0  0  0  0  0  0
    3.1789  -11.7538    2.0641 H   0  0  0  0  0  0
    1.6971  -10.8469    2.3206 H   0  0  0  0  0  0
    0.4278  -12.9985    2.6123 H   0  0  0  0  0  0
    1.9119  -13.9035    2.3719 H   0  0  0  0  0  0
    2.9097  -12.8045    4.4058 H   0  0  0  0  0  0
    1.4206  -11.9061    4.6487 H   0  0  0  0  0  0
    0.1604  -14.0690    4.9129 H   0  0  0  0  0  0
    1.6493  -14.9659    4.6700 H   0  0  0  0  0  0
    2.6313  -13.8924    6.7239 H   0  0  0  0  0  0
    1.1408  -12.9970    6.9679 H   0  0  0  0  0  0
   -0.1188  -15.1613    7.2050 H   0  0  0  0  0  0
    1.3716  -16.0550    6.9626 H   0  0  0  0  0  0
    0.8409  -15.8820    9.4077 H   0  0  0  0  0  0
    0.8409  -14.1158    9.2979 H   0  0  0  0  0  0
    2.3426  -15.0156    9.0532 H   0  0  0  0  0  0
  1  2  1  0  0  0
  1 37  1  0  0  0
  1 38  1  0  0  0
  1 39  1  0  0  0
  2  3  1  0  0  0
  2 40  1  0  0  0
  2 41  1  0  0  0
  3  4  1  0  0  0
  3 42  1  0  0  0
  3 43  1  0  0  0
  4  5  1  0  0  0
  4 44  1  0  0  0
  4 45  1  0  0  0
  5  6  1  0  0  0
  5 46  1  0  0  0
  5 47  1  0  0  0
  6  7  1  0  0  0
  6 48  1  0  0  0
  6 49  1  0  0  0
  7  8  1  0  0  0
  7 50  1  0  0  0
  7 51  1  0  0  0
  8  9  1  0  0  0
  8 52  1  0  0  0
  8 53  1  0  0  0
  9 10  1  0  0  0
  9 54  1  0  0  0
  9 55  1  0  0  0
 10 11  1  0  0  0
 10 56  1  0  0  0
 10 57  1  0  0  0
 11 12  1  0  0  0
 11 58  1  0  0  0
 11 59  1  0  0  0
 12 13  1  0  0  0
 12 60  1  0  0  0
 12 61  1  0  0  0
 13 14  1  0  0  0
 13 62  1  0  0  0
 13 63  1  0  0  0
 14 15  1  0  0  0
 14 64  1  0  0  0
 14 65  1  0  0  0
 15 16  1  0  0  0
 15 66  1  0  0  0
 15 67  1  0  0  0
 16 17  1  0  0  0
 16 68  1  0  0  0
 16 69  1  0  0  0
 17 18  1  0  0  0
 17 70  1  0  0  0
 17 71  1  0  0  0
 18 19  1  0  0  0
 18 72  1  0  0  0
 18 73  1  0  0  0
 19 20  1  0  0  0
 19 74  1  0  0  0
 19 75  1  0  0  0
 20 21  1  0  0  0
 20 76  1  0  0  0
 20 77  1  0  0  0
 21 22  1  0  0  0
 21 78  1  0  0  0
 21 79  1  0  0  0
 22 23  1  0  0  0
 22 80  1  0  0  0
 22 81  1  0  0  0
 23 24  1  0  0  0
 23 82  1  0  0  0
 23 83  1  0  0  0
 24 25  1  0  0  0
 24 84  1  0  0  0
 24 85  1  0  0  0
 25 26  1  0  0  0
 25 86  1  0  0  0
 25 87  1  0  0  0
 26 27  1  0  0  0
 26 88  1  0  0  0
 26 89  1  0  0  0
 27 28  1  0  0  0
 27 90  1  0  0  0
 27 91  1  0  0  0
 28 29  1  0  0  0
 28 92  1  0  0  0
 28 93  1  0  0  0
 29 30  1  0  0  0
 29 94  1  0  0  0
 29 95  1  0  0  0
 30 31  1  0  0  0
 30 96  1  0  0  0
 30 97  1  0  0  0
 31 32  1  0  0  0
 31 98  1  0  0  0
 31 99  1  0  0  0
 32 33  1  0  0  0
 32100  1  0  0  0
 32101  1  0  0  0
 33 34  1  0  0  0
 33102  1  0  0  0
 33103  1  0  0  0
 34 35  1  0  0  0
 34104  1  0  0  0
 34105  1  0  0  0
 35 36  1  0  0  0
 35106  1  0  0  0
 35107  1  0  0  0
 36108  1  0  0  0
 36109  1  0  0  0
 36110  1  0  0  0
M  END
>  <i_m_Spin_multiplicity> (1)
1

>  <s_j_Task> (1)
Single Point

>  <s_j_QM_Method> (1)
DFT(b3lyp-d3)

>  <s_j_QM_Basis> (1)
cc-pvtz(-f)

>  <i_j_Number_of_canonical_orbitals> (1)
1483

>  <i_j_Geometry_convergence_category> (1)
4

>  <r_j_Gas_Phase_Energy> (1)
-1417.06073859408

>  <r_j_Final_Energy> (1)
-1417.06073859408

>  <r_j_HOMO> (1)
-0.249726310088673

>  <r_j_LUMO> (1)
-0.0868552188322285

>  <r_j_Polarizability> (1)
449.937886779073

>  <r_j_QM_Dipole_(debye)> (1)
0.0824457836139169

>  <r_j_QM_Dipole_X_(debye)> (1)
-0.0659063318849965

>  <r_j_QM_Dipole_Y_(debye)> (1)
-0.0286959231602547

>  <r_j_QM_Dipole_Z_(debye)> (1)
-0.0403758176035887

>  <r_j_Lowest_Frequency_(cm-1)> (1)
15.360671568074

>  <r_j_Highest_Frequency_(cm-1)> (1)
3045.56369454685

>  <r_j_2nd_Lowest_Frequency_(cm-1)> (1)
16.3350024736805

>  <i_j_Num_Negative_Frequencies> (1)
0

>  <r_j_Zero_Point_Energy_(kcal/mol)> (1)
654.759083936001

>  <r_j_Entropy_(cal/mol/K)_298.15K_1.00E+00atm> (1)
248.207211370751

>  <r_j_Enthalpy_(kcal/mol)_298.15K_1.00E+00atm> (1)
28.3041633191659

>  <r_j_Free_Energy_(kcal/mol)_298.15K_1.00E+00atm> (1)
-45.6988167510235

>  <r_j_Internal_Energy_(kcal/mol)_298.15K_1.00E+00atm> (1)
27.7116777303386

>  <r_j_Heat_Capacity_(cal/mol/K)_298.15K_1.00E+00atm> (1)
170.8226277546

>  <r_j_ln(Q)_298.15K_1.00E+00atm> (1)
77.1306806659662

>  <r_j_Total_Internal_Energy_(au)_298.15K_1.00E+00atm> (1)
-1415.9731522001

>  <r_j_Total_Enthalpy_(au)_298.15K_1.00E+00atm> (1)
-1415.97220801421

>  <r_j_Total_Free_Energy_(au)_298.15K_1.00E+00atm> (1)
-1416.0901392704

>  <r_lp_tautomer_probability> (1)
1

>  <r_epik_Ionization_Penalty> (1)
  0.0000

>  <r_epik_Ionization_Penalty_Charging> (1)
  0.0000

>  <r_epik_Ionization_Penalty_Neutral> (1)
  0.0000

>  <r_epik_State_Penalty> (1)
  0.0000

>  <r_epik_Charging_Adjusted_Penalty> (1)
0

>  <i_epik_Tot_Q> (1)
0

>  <i_epik_Tot_abs_Q> (1)
0

>  <s_lp_Force_Field> (1)
S-OPLS

>  <r_lp_Energy> (1)
20.3609

>  <b_lp_Chiralities_Consistent> (1)
1

$$$$
