12413_n-Pentatriacontane
                    3D
 Schrodinger Suite 2021-3.
107106  0  0  1  0            999 V2000
   -2.2920   -8.4670   -3.4585 C   0  0  0  0  0  0
   -2.5486   -9.0718   -2.0750 C   0  0  0  0  0  0
   -2.6779   -8.0140   -0.9726 C   0  0  0  0  0  0
   -2.9940   -8.6162    0.4045 C   0  0  0  0  0  0
   -2.8090   -7.6485    1.5834 C   0  0  0  0  0  0
   -3.6468   -6.3654    1.5019 C   0  0  0  0  0  0
   -3.4996   -5.4795    2.7457 C   0  0  0  0  0  0
   -4.2132   -4.1270    2.6278 C   0  0  0  0  0  0
   -4.0479   -3.2521    3.8785 C   0  0  0  0  0  0
   -4.6855   -1.8564    3.7791 C   0  0  0  0  0  0
   -4.0870   -0.9812    2.6683 C   0  0  0  0  0  0
   -4.5119    0.4926    2.7469 C   0  0  0  0  0  0
   -4.0838    1.3300    1.5293 C   0  0  0  0  0  0
   -2.5707    1.3388    1.2743 C   0  0  0  0  0  0
   -2.1616    2.1594    0.0436 C   0  0  0  0  0  0
   -0.6584    2.1004   -0.2813 C   0  0  0  0  0  0
   -0.1488    0.6796   -0.5631 C   0  0  0  0  0  0
    1.2907    0.6211   -1.0936 C   0  0  0  0  0  0
    1.8707   -0.8036   -1.1310 C   0  0  0  0  0  0
    1.1092   -1.7765   -2.0420 C   0  0  0  0  0  0
    1.6353   -3.2159   -1.9758 C   0  0  0  0  0  0
    0.8322   -4.1811   -2.8589 C   0  0  0  0  0  0
    1.2598   -5.6542   -2.7652 C   0  0  0  0  0  0
    1.0516   -6.2813   -1.3789 C   0  0  0  0  0  0
    1.2414   -7.8028   -1.3644 C   0  0  0  0  0  0
    1.0025   -8.4288    0.0142 C   0  0  0  0  0  0
    1.1370   -9.9577    0.0204 C   0  0  0  0  0  0
    0.6376  -10.6264    1.3099 C   0  0  0  0  0  0
    1.3810  -10.2085    2.5853 C   0  0  0  0  0  0
    0.8605  -10.9301    3.8338 C   0  0  0  0  0  0
    1.5732  -10.5230    5.1286 C   0  0  0  0  0  0
    1.0256  -11.2443    6.3659 C   0  0  0  0  0  0
    1.7281  -10.8549    7.6714 C   0  0  0  0  0  0
    1.1655  -11.5803    8.8999 C   0  0  0  0  0  0
    1.8712  -11.1946   10.2034 C   0  0  0  0  0  0
   -2.1813   -9.2422   -4.2240 H   0  0  0  0  0  0
   -1.3772   -7.8625   -3.4610 H   0  0  0  0  0  0
   -3.1175   -7.8129   -3.7622 H   0  0  0  0  0  0
   -3.4609   -9.6835   -2.1031 H   0  0  0  0  0  0
   -1.7310   -9.7586   -1.8152 H   0  0  0  0  0  0
   -1.7420   -7.4423   -0.9182 H   0  0  0  0  0  0
   -3.4558   -7.2914   -1.2524 H   0  0  0  0  0  0
   -4.0241   -9.0002    0.4014 H   0  0  0  0  0  0
   -2.3481   -9.4898    0.5664 H   0  0  0  0  0  0
   -3.0478   -8.1760    2.5173 H   0  0  0  0  0  0
   -1.7475   -7.3715    1.6576 H   0  0  0  0  0  0
   -3.3502   -5.7891    0.6153 H   0  0  0  0  0  0
   -4.7058   -6.6238    1.3565 H   0  0  0  0  0  0
   -3.8749   -6.0206    3.6262 H   0  0  0  0  0  0
   -2.4307   -5.3019    2.9350 H   0  0  0  0  0  0
   -3.8194   -3.5993    1.7495 H   0  0  0  0  0  0
   -5.2835   -4.2868    2.4321 H   0  0  0  0  0  0
   -4.4706   -3.7826    4.7425 H   0  0  0  0  0  0
   -2.9751   -3.1352    4.0910 H   0  0  0  0  0  0
   -5.7698   -1.9520    3.6257 H   0  0  0  0  0  0
   -4.5599   -1.3441    4.7429 H   0  0  0  0  0  0
   -2.9925   -1.0517    2.7201 H   0  0  0  0  0  0
   -4.3695   -1.3811    1.6852 H   0  0  0  0  0  0
   -5.6044    0.5471    2.8494 H   0  0  0  0  0  0
   -4.0986    0.9373    3.6635 H   0  0  0  0  0  0
   -4.5905    0.9410    0.6339 H   0  0  0  0  0  0
   -4.4396    2.3616    1.6549 H   0  0  0  0  0  0
   -2.0479    1.7218    2.1632 H   0  0  0  0  0  0
   -2.2299    0.3068    1.1429 H   0  0  0  0  0  0
   -2.7260    1.7968   -0.8280 H   0  0  0  0  0  0
   -2.4639    3.2056    0.1866 H   0  0  0  0  0  0
   -0.4585    2.7347   -1.1556 H   0  0  0  0  0  0
   -0.0823    2.5352    0.5480 H   0  0  0  0  0  0
   -0.2050    0.0792    0.3544 H   0  0  0  0  0  0
   -0.8282    0.1994   -1.2798 H   0  0  0  0  0  0
    1.3298    1.0661   -2.0981 H   0  0  0  0  0  0
    1.9323    1.2474   -0.4588 H   0  0  0  0  0  0
    2.9213   -0.7617   -1.4486 H   0  0  0  0  0  0
    1.8792   -1.2069   -0.1077 H   0  0  0  0  0  0
    0.0473   -1.7871   -1.7650 H   0  0  0  0  0  0
    1.1479   -1.4128   -3.0791 H   0  0  0  0  0  0
    2.6944   -3.2432   -2.2705 H   0  0  0  0  0  0
    1.6017   -3.5523   -0.9312 H   0  0  0  0  0  0
   -0.2324   -4.1064   -2.5921 H   0  0  0  0  0  0
    0.9048   -3.8501   -3.9038 H   0  0  0  0  0  0
    0.6851   -6.2316   -3.5027 H   0  0  0  0  0  0
    2.3147   -5.7550   -3.0576 H   0  0  0  0  0  0
    1.7370   -5.8263   -0.6520 H   0  0  0  0  0  0
    0.0376   -6.0415   -1.0267 H   0  0  0  0  0  0
    0.5524   -8.2589   -2.0892 H   0  0  0  0  0  0
    2.2542   -8.0512   -1.7126 H   0  0  0  0  0  0
    1.6988   -7.9861    0.7382 H   0  0  0  0  0  0
   -0.0043   -8.1603    0.3601 H   0  0  0  0  0  0
    0.5679  -10.3656   -0.8266 H   0  0  0  0  0  0
    2.1859  -10.2341   -0.1582 H   0  0  0  0  0  0
   -0.4319  -10.4040    1.4353 H   0  0  0  0  0  0
    0.7082  -11.7170    1.1982 H   0  0  0  0  0  0
    2.4559  -10.4075    2.4645 H   0  0  0  0  0  0
    1.2864   -9.1249    2.7342 H   0  0  0  0  0  0
   -0.2169  -10.7347    3.9382 H   0  0  0  0  0  0
    0.9570  -12.0165    3.6930 H   0  0  0  0  0  0
    2.6496  -10.7264    5.0329 H   0  0  0  0  0  0
    1.4815   -9.4363    5.2696 H   0  0  0  0  0  0
   -0.0505  -11.0369    6.4580 H   0  0  0  0  0  0
    1.1113  -12.3308    6.2189 H   0  0  0  0  0  0
    2.8038  -11.0669    7.5849 H   0  0  0  0  0  0
    1.6453   -9.7686    7.8214 H   0  0  0  0  0  0
    0.0914  -11.3648    8.9854 H   0  0  0  0  0  0
    1.2450  -12.6653    8.7459 H   0  0  0  0  0  0
    1.4489  -11.7260   11.0627 H   0  0  0  0  0  0
    1.7799  -10.1196   10.3982 H   0  0  0  0  0  0
    2.9407  -11.4310   10.1575 H   0  0  0  0  0  0
  1  2  1  0  0  0
  1 36  1  0  0  0
  1 37  1  0  0  0
  1 38  1  0  0  0
  2  3  1  0  0  0
  2 39  1  0  0  0
  2 40  1  0  0  0
  3  4  1  0  0  0
  3 41  1  0  0  0
  3 42  1  0  0  0
  4  5  1  0  0  0
  4 43  1  0  0  0
  4 44  1  0  0  0
  5  6  1  0  0  0
  5 45  1  0  0  0
  5 46  1  0  0  0
  6  7  1  0  0  0
  6 47  1  0  0  0
  6 48  1  0  0  0
  7  8  1  0  0  0
  7 49  1  0  0  0
  7 50  1  0  0  0
  8  9  1  0  0  0
  8 51  1  0  0  0
  8 52  1  0  0  0
  9 10  1  0  0  0
  9 53  1  0  0  0
  9 54  1  0  0  0
 10 11  1  0  0  0
 10 55  1  0  0  0
 10 56  1  0  0  0
 11 12  1  0  0  0
 11 57  1  0  0  0
 11 58  1  0  0  0
 12 13  1  0  0  0
 12 59  1  0  0  0
 12 60  1  0  0  0
 13 14  1  0  0  0
 13 61  1  0  0  0
 13 62  1  0  0  0
 14 15  1  0  0  0
 14 63  1  0  0  0
 14 64  1  0  0  0
 15 16  1  0  0  0
 15 65  1  0  0  0
 15 66  1  0  0  0
 16 17  1  0  0  0
 16 67  1  0  0  0
 16 68  1  0  0  0
 17 18  1  0  0  0
 17 69  1  0  0  0
 17 70  1  0  0  0
 18 19  1  0  0  0
 18 71  1  0  0  0
 18 72  1  0  0  0
 19 20  1  0  0  0
 19 73  1  0  0  0
 19 74  1  0  0  0
 20 21  1  0  0  0
 20 75  1  0  0  0
 20 76  1  0  0  0
 21 22  1  0  0  0
 21 77  1  0  0  0
 21 78  1  0  0  0
 22 23  1  0  0  0
 22 79  1  0  0  0
 22 80  1  0  0  0
 23 24  1  0  0  0
 23 81  1  0  0  0
 23 82  1  0  0  0
 24 25  1  0  0  0
 24 83  1  0  0  0
 24 84  1  0  0  0
 25 26  1  0  0  0
 25 85  1  0  0  0
 25 86  1  0  0  0
 26 27  1  0  0  0
 26 87  1  0  0  0
 26 88  1  0  0  0
 27 28  1  0  0  0
 27 89  1  0  0  0
 27 90  1  0  0  0
 28 29  1  0  0  0
 28 91  1  0  0  0
 28 92  1  0  0  0
 29 30  1  0  0  0
 29 93  1  0  0  0
 29 94  1  0  0  0
 30 31  1  0  0  0
 30 95  1  0  0  0
 30 96  1  0  0  0
 31 32  1  0  0  0
 31 97  1  0  0  0
 31 98  1  0  0  0
 32 33  1  0  0  0
 32 99  1  0  0  0
 32100  1  0  0  0
 33 34  1  0  0  0
 33101  1  0  0  0
 33102  1  0  0  0
 34 35  1  0  0  0
 34103  1  0  0  0
 34104  1  0  0  0
 35105  1  0  0  0
 35106  1  0  0  0
 35107  1  0  0  0
M  END
> <i_m_Spin_multiplicity>
1

> <s_j_Task>
Single Point

> <s_j_QM_Method>
DFT(b3lyp-d3)

> <s_j_QM_Basis>
cc-pvtz(-f)

> <i_j_Number_of_canonical_orbitals>
1442

> <i_j_Geometry_convergence_category>
3

> <r_j_Gas_Phase_Energy>
-1377.73559542161

> <r_j_Final_Energy>
-1377.73559542161

> <r_j_HOMO>
-0.30167196108116

> <r_j_LUMO>
-0.0736156750109082

> <r_j_Polarizability>
429.786951427199

> <r_j_QM_Dipole_(debye)>
0.0560944131257515

> <r_j_QM_Dipole_X_(debye)>
-0.0422973658624245

> <r_j_QM_Dipole_Y_(debye)>
-0.0315503394005047

> <r_j_QM_Dipole_Z_(debye)>
-0.0190287180003187

> <r_j_Lowest_Frequency_(cm-1)>
17.7128196526147

> <r_j_Highest_Frequency_(cm-1)>
3045.35450631905

> <r_j_2nd_Lowest_Frequency_(cm-1)>
21.2678775058244

> <i_j_Num_Negative_Frequencies>
0

> <r_j_Zero_Point_Energy_(kcal/mol)>
637.425529652522

> <r_j_Entropy_(cal/mol/K)_298.15K_1.00E+00atm>
238.576663361259

> <r_j_Enthalpy_(kcal/mol)_298.15K_1.00E+00atm>
27.2960391235585

> <r_j_Free_Energy_(kcal/mol)_298.15K_1.00E+00atm>
-43.835593057601

> <r_j_Internal_Energy_(kcal/mol)_298.15K_1.00E+00atm>
26.7035535347312

> <r_j_Heat_Capacity_(cal/mol/K)_298.15K_1.00E+00atm>
165.768469023183

> <r_j_ln(Q)_298.15K_1.00E+00atm>
73.9859228379987

> <r_j_Total_Internal_Energy_(au)_298.15K_1.00E+00atm>
-1376.67723835301

> <r_j_Total_Enthalpy_(au)_298.15K_1.00E+00atm>
-1376.67629416712

> <r_j_Total_Free_Energy_(au)_298.15K_1.00E+00atm>
-1376.78964963916

> <r_lp_tautomer_probability>
1

> <r_epik_Ionization_Penalty>
  0.0000

> <r_epik_Ionization_Penalty_Charging>
  0.0000

> <r_epik_Ionization_Penalty_Neutral>
  0.0000

> <r_epik_State_Penalty>
  0.0000

> <r_epik_Charging_Adjusted_Penalty>
0

> <i_epik_Tot_Q>
0

> <i_epik_Tot_abs_Q>
0

> <s_lp_Force_Field>
S-OPLS

> <r_lp_Energy>
17.999733

> <b_lp_Chiralities_Consistent>
1

$$$$
