12444466_Stigmasta-3,5-dien-7-one
                    3D
 Schrodinger Suite 2021-3.
 76 79  0  0  1  0            999 V2000
   -0.8547   -1.7779    2.1208 C   0  0  0  0  0  0
   -0.9978   -0.3930    1.4799 C   0  0  0  0  0  0
   -0.2023   -0.1987    0.1684 C   0  0  0  0  0  0
    1.2932   -0.5548    0.3527 C   0  0  0  0  0  0
    2.0070    0.3136    1.4018 C   0  0  0  0  0  0
    3.5386    0.3924    1.2618 C   0  0  0  0  0  0
    4.1670   -1.0035    1.4137 C   0  0  0  0  0  0
    4.1727    1.3941    2.2590 C   0  0  0  0  0  0
    5.7074    1.4830    2.1652 C   0  0  0  0  0  0
    6.0524    2.6771    3.0527 C   0  0  0  0  0  0
    4.9578    3.7234    2.7409 C   0  0  0  0  0  0
    3.7120    2.9024    2.1936 C   0  0  0  0  0  0
    2.4740    3.1740    3.0792 C   0  0  0  0  0  0
    2.1596    4.6678    3.2190 C   0  0  0  0  0  0
    3.3216    5.4735    3.8583 C   0  0  0  0  0  0
    4.6193    4.6225    3.9582 C   0  0  0  0  0  0
    5.8286    5.4479    4.4076 C   0  0  0  0  0  0
    6.8669    4.9019    4.7717 O   0  0  0  0  0  0
    5.7137    6.9086    4.4321 C   0  0  0  0  0  0
    4.6536    7.6026    3.9542 C   0  0  0  0  0  0
    3.4968    6.8994    3.2541 C   0  0  0  0  0  0
    2.1950    7.7051    3.5065 C   0  0  0  0  0  0
    2.3050    9.1819    3.1066 C   0  0  0  0  0  0
    3.5768    9.7957    3.6154 C   0  0  0  0  0  0
    4.6288    9.0592    4.0159 C   0  0  0  0  0  0
    3.8256    6.9094    1.7404 C   0  0  0  0  0  0
    3.4468    3.3328    0.7360 C   0  0  0  0  0  0
   -0.4283    1.2283   -0.4159 C   0  0  0  0  0  0
   -1.8944    1.4559   -0.8238 C   0  0  0  0  0  0
    0.4809    1.5312   -1.6181 C   0  0  0  0  0  0
   -1.5360   -1.8845    2.9712 H   0  0  0  0  0  0
    0.1596   -1.9580    2.4904 H   0  0  0  0  0  0
   -1.0920   -2.5717    1.4028 H   0  0  0  0  0  0
   -2.0602   -0.2140    1.2856 H   0  0  0  0  0  0
   -0.6915    0.3757    2.2027 H   0  0  0  0  0  0
   -0.6058   -0.9090   -0.5715 H   0  0  0  0  0  0
    1.3734   -1.6141    0.6174 H   0  0  0  0  0  0
    1.8076   -0.4610   -0.6102 H   0  0  0  0  0  0
    1.6013    1.3218    1.3305 H   0  0  0  0  0  0
    1.7580   -0.0348    2.4138 H   0  0  0  0  0  0
    3.7603    0.7415    0.2428 H   0  0  0  0  0  0
    4.0251   -1.3824    2.4339 H   0  0  0  0  0  0
    5.2400   -0.9944    1.2064 H   0  0  0  0  0  0
    3.7088   -1.7201    0.7261 H   0  0  0  0  0  0
    3.9345    1.0312    3.2719 H   0  0  0  0  0  0
    6.2103    0.5680    2.4896 H   0  0  0  0  0  0
    6.0088    1.6651    1.1236 H   0  0  0  0  0  0
    5.9954    2.3811    4.1063 H   0  0  0  0  0  0
    7.0589    3.0716    2.9050 H   0  0  0  0  0  0
    5.3226    4.3605    1.9273 H   0  0  0  0  0  0
    1.5944    2.6674    2.6743 H   0  0  0  0  0  0
    2.6381    2.7352    4.0720 H   0  0  0  0  0  0
    1.9172    5.0633    2.2279 H   0  0  0  0  0  0
    1.2489    4.7955    3.8137 H   0  0  0  0  0  0
    3.0463    5.6654    4.9044 H   0  0  0  0  0  0
    4.4616    3.9287    4.7944 H   0  0  0  0  0  0
    6.5670    7.4256    4.8654 H   0  0  0  0  0  0
    1.3618    7.2364    2.9737 H   0  0  0  0  0  0
    1.9597    7.6521    4.5767 H   0  0  0  0  0  0
    2.2584    9.2944    2.0126 H   0  0  0  0  0  0
    1.4417    9.7401    3.4899 H   0  0  0  0  0  0
    3.6364   10.8811    3.6581 H   0  0  0  0  0  0
    5.5207    9.5505    4.3990 H   0  0  0  0  0  0
    2.9849    6.5423    1.1452 H   0  0  0  0  0  0
    4.7018    6.2972    1.5230 H   0  0  0  0  0  0
    4.0495    7.9250    1.4037 H   0  0  0  0  0  0
    3.3149    4.4131    0.6570 H   0  0  0  0  0  0
    2.5525    2.8640    0.3171 H   0  0  0  0  0  0
    4.2944    3.0701    0.0952 H   0  0  0  0  0  0
   -0.1917    1.9591    0.3718 H   0  0  0  0  0  0
   -2.2010    0.7316   -1.5887 H   0  0  0  0  0  0
   -2.0265    2.4577   -1.2462 H   0  0  0  0  0  0
   -2.5849    1.3651    0.0183 H   0  0  0  0  0  0
    0.3536    0.7766   -2.4042 H   0  0  0  0  0  0
    1.5397    1.5545   -1.3478 H   0  0  0  0  0  0
    0.2339    2.5058   -2.0522 H   0  0  0  0  0  0
  1  2  1  0  0  0
  1 31  1  0  0  0
  1 32  1  0  0  0
  1 33  1  0  0  0
  2  3  1  0  0  0
  2 34  1  0  0  0
  2 35  1  0  0  0
  3  4  1  0  0  0
  3 28  1  0  0  0
  3 36  1  0  0  0
  4  5  1  0  0  0
  4 37  1  0  0  0
  4 38  1  0  0  0
  5  6  1  0  0  0
  5 39  1  0  0  0
  5 40  1  0  0  0
  6  7  1  0  0  0
  6  8  1  0  0  0
  6 41  1  0  0  0
  7 42  1  0  0  0
  7 43  1  0  0  0
  7 44  1  0  0  0
  8 12  1  0  0  0
  8  9  1  0  0  0
  8 45  1  0  0  0
  9 10  1  0  0  0
  9 46  1  0  0  0
  9 47  1  0  0  0
 10 11  1  0  0  0
 10 48  1  0  0  0
 10 49  1  0  0  0
 11 16  1  0  0  0
 11 12  1  0  0  0
 11 50  1  0  0  0
 12 13  1  0  0  0
 12 27  1  0  0  0
 13 14  1  0  0  0
 13 51  1  0  0  0
 13 52  1  0  0  0
 14 15  1  0  0  0
 14 53  1  0  0  0
 14 54  1  0  0  0
 15 21  1  0  0  0
 15 16  1  0  0  0
 15 55  1  0  0  0
 16 17  1  0  0  0
 16 56  1  0  0  0
 17 18  2  0  0  0
 17 19  1  0  0  0
 19 20  2  0  0  0
 19 57  1  0  0  0
 20 25  1  0  0  0
 20 21  1  0  0  0
 21 22  1  0  0  0
 21 26  1  0  0  0
 22 23  1  0  0  0
 22 58  1  0  0  0
 22 59  1  0  0  0
 23 24  1  0  0  0
 23 60  1  0  0  0
 23 61  1  0  0  0
 24 25  2  0  0  0
 24 62  1  0  0  0
 25 63  1  0  0  0
 26 64  1  0  0  0
 26 65  1  0  0  0
 26 66  1  0  0  0
 27 67  1  0  0  0
 27 68  1  0  0  0
 27 69  1  0  0  0
 28 29  1  0  0  0
 28 30  1  0  0  0
 28 70  1  0  0  0
 29 71  1  0  0  0
 29 72  1  0  0  0
 29 73  1  0  0  0
 30 74  1  0  0  0
 30 75  1  0  0  0
 30 76  1  0  0  0
M  END
>  <i_m_Spin_multiplicity> (1)
1

>  <s_j_Task> (1)
Single Point

>  <s_j_QM_Method> (1)
DFT(b3lyp-d3)

>  <s_j_QM_Basis> (1)
cc-pvtz(-f)

>  <i_j_Number_of_canonical_orbitals> (1)
1084

>  <i_j_Geometry_convergence_category> (1)
3

>  <r_j_Gas_Phase_Energy> (1)
-1208.49137693588

>  <r_j_Final_Energy> (1)
-1208.49137693588

>  <r_j_HOMO> (1)
-0.221023687172238

>  <r_j_LUMO> (1)
-0.0560317325191599

>  <r_j_Polarizability> (1)
335.697068106913

>  <r_j_QM_Dipole_(debye)> (1)
4.50249855322781

>  <r_j_QM_Dipole_X_(debye)> (1)
-3.65933387654807

>  <r_j_QM_Dipole_Y_(debye)> (1)
2.20805077585728

>  <r_j_QM_Dipole_Z_(debye)> (1)
-1.41643233971914

>  <r_j_Lowest_Frequency_(cm-1)> (1)
39.4160118704746

>  <r_j_Highest_Frequency_(cm-1)> (1)
3123.31736248254

>  <r_j_2nd_Lowest_Frequency_(cm-1)> (1)
44.3151763407311

>  <i_j_Num_Negative_Frequencies> (1)
0

>  <r_j_Zero_Point_Energy_(kcal/mol)> (1)
436.324900430279

>  <r_j_Entropy_(cal/mol/K)_298.15K_1.00E+00atm> (1)
174.282525549523

>  <r_j_Enthalpy_(kcal/mol)_298.15K_1.00E+00atm> (1)
18.5546112284094

>  <r_j_Free_Energy_(kcal/mol)_298.15K_1.00E+00atm> (1)
-33.4077237641807

>  <r_j_Internal_Energy_(kcal/mol)_298.15K_1.00E+00atm> (1)
17.9621256395821

>  <r_j_Heat_Capacity_(cal/mol/K)_298.15K_1.00E+00atm> (1)
121.992758872131

>  <r_j_ln(Q)_298.15K_1.00E+00atm> (1)
56.3857153560574

>  <r_j_Total_Internal_Energy_(au)_298.15K_1.00E+00atm> (1)
-1207.76742447335

>  <r_j_Total_Enthalpy_(au)_298.15K_1.00E+00atm> (1)
-1207.76648028746

>  <r_j_Total_Free_Energy_(au)_298.15K_1.00E+00atm> (1)
-1207.84928753974

>  <r_lp_tautomer_probability> (1)
1

>  <r_epik_Ionization_Penalty> (1)
  0.0000

>  <r_epik_Ionization_Penalty_Charging> (1)
  0.0000

>  <r_epik_Ionization_Penalty_Neutral> (1)
  0.0000

>  <r_epik_State_Penalty> (1)
  0.0000

>  <r_epik_Charging_Adjusted_Penalty> (1)
0

>  <i_epik_Tot_Q> (1)
0

>  <i_epik_Tot_abs_Q> (1)
0

>  <s_lp_Force_Field> (1)
S-OPLS

>  <r_lp_Energy> (1)
48.715956

>  <b_lp_Chiralities_Consistent> (1)
1

$$$$
