12463_Tetrachlorobenzenes
                    3D
 Schrodinger Suite 2021-3.
 12 12  0  0  1  0            999 V2000
    1.2221    1.9495    0.0346 C   0  0  0  0  0  0
    1.8328    2.3009    1.2304 C   0  0  0  0  0  0
    3.0307    3.0132    1.2231 C   0  0  0  0  0  0
    3.6302    3.3815    0.0080 C   0  0  0  0  0  0
    3.0096    3.0245   -1.2071 C   0  0  0  0  0  0
    1.8030    2.3068   -1.1808 C   0  0  0  0  0  0
    0.9910    1.8384   -2.6544 Cl  0  0  0  0  0  0
    3.7333    3.4696   -2.7248 Cl  0  0  0  0  0  0
    5.1251    4.2705    0.0005 Cl  0  0  0  0  0  0
    3.7547    3.4287    2.7572 Cl  0  0  0  0  0  0
    0.2907    1.3958    0.0354 H   0  0  0  0  0  0
    1.3847    2.0253    2.1777 H   0  0  0  0  0  0
  1  6  1  0  0  0
  1  2  2  0  0  0
  1 11  1  0  0  0
  2  3  1  0  0  0
  2 12  1  0  0  0
  3  4  2  0  0  0
  3 10  1  0  0  0
  4  5  1  0  0  0
  4  9  1  0  0  0
  5  6  2  0  0  0
  5  8  1  0  0  0
  6  7  1  0  0  0
M  END
>  <i_m_Spin_multiplicity> (1)
1

>  <s_j_Task> (1)
Single Point

>  <s_j_QM_Method> (1)
DFT(b3lyp-d3)

>  <s_j_QM_Basis> (1)
cc-pvtz(-f)

>  <i_j_Number_of_canonical_orbitals> (1)
260

>  <i_j_Geometry_convergence_category> (1)
0

>  <r_j_Gas_Phase_Energy> (1)
-2070.83719802378

>  <r_j_Final_Energy> (1)
-2070.83719802378

>  <r_j_HOMO> (1)
-0.245839452964624

>  <r_j_LUMO> (1)
-0.037938077079784

>  <r_j_Polarizability> (1)
115.867941663231

>  <r_j_QM_Dipole_(debye)> (1)
1.9058430881102

>  <r_j_QM_Dipole_X_(debye)> (1)
-1.40729592251555

>  <r_j_QM_Dipole_Y_(debye)> (1)
-0.84607598033053

>  <r_j_QM_Dipole_Z_(debye)> (1)
0.967425190118723

>  <r_j_Lowest_Frequency_(cm-1)> (1)
84.6954075874776

>  <r_j_Highest_Frequency_(cm-1)> (1)
3175.00497585343

>  <r_j_2nd_Lowest_Frequency_(cm-1)> (1)
101.496751641922

>  <i_j_Num_Negative_Frequencies> (1)
0

>  <r_j_Zero_Point_Energy_(kcal/mol)> (1)
38.7196333691211

>  <r_j_Entropy_(cal/mol/K)_298.15K_1.00E+00atm> (1)
96.1105694762737

>  <r_j_Enthalpy_(kcal/mol)_298.15K_1.00E+00atm> (1)
6.24753310857902

>  <r_j_Free_Energy_(kcal/mol)_298.15K_1.00E+00atm> (1)
-22.407833180772

>  <r_j_Internal_Energy_(kcal/mol)_298.15K_1.00E+00atm> (1)
5.65504751975174

>  <r_j_Heat_Capacity_(cal/mol/K)_298.15K_1.00E+00atm> (1)
32.2066363824117

>  <r_j_ln(Q)_298.15K_1.00E+00atm> (1)
37.8200476152079

>  <r_j_Total_Internal_Energy_(au)_298.15K_1.00E+00atm> (1)
-2070.76648246807

>  <r_j_Total_Enthalpy_(au)_298.15K_1.00E+00atm> (1)
-2070.76553828217

>  <r_j_Total_Free_Energy_(au)_298.15K_1.00E+00atm> (1)
-2070.81120351538

>  <r_lp_tautomer_probability> (1)
1

>  <r_epik_Ionization_Penalty> (1)
  0.0000

>  <r_epik_Ionization_Penalty_Charging> (1)
  0.0000

>  <r_epik_Ionization_Penalty_Neutral> (1)
  0.0000

>  <r_epik_State_Penalty> (1)
  0.0000

>  <r_epik_Charging_Adjusted_Penalty> (1)
0

>  <i_epik_Tot_Q> (1)
0

>  <i_epik_Tot_abs_Q> (1)
0

>  <s_lp_Force_Field> (1)
S-OPLS

>  <r_lp_Energy> (1)
11.755804

>  <b_lp_Chiralities_Consistent> (1)
1

$$$$
