12462_1,2,3-Trimethoxybenzene
                    3D
 Schrodinger Suite 2021-3.
 24 24  0  0  1  0            999 V2000
   -0.7085    1.1689    0.0314 C   0  0  0  0  0  0
    0.0603   -0.0231    0.0241 O   0  0  0  0  0  0
    1.4197    0.0933   -0.0057 C   0  0  0  0  0  0
    2.1210   -1.1240   -0.0161 C   0  0  0  0  0  0
    3.5259   -1.1225   -0.0056 C   0  0  0  0  0  0
    4.2270    0.0910   -0.0172 C   0  0  0  0  0  0
    3.5131    1.2876   -0.0266 C   0  0  0  0  0  0
    2.1199    1.3073   -0.0175 C   0  0  0  0  0  0
    4.1048   -2.3579    0.0241 O   0  0  0  0  0  0
    5.5215   -2.4277    0.0311 C   0  0  0  0  0  0
    1.4353   -2.3121   -0.0696 O   0  0  0  0  0  0
    1.1228   -2.8518    1.2152 C   0  0  0  0  0  0
   -1.7525    0.8524    0.0556 H   0  0  0  0  0  0
   -0.5357    1.7699   -0.8713 H   0  0  0  0  0  0
   -0.4978    1.7854    0.9157 H   0  0  0  0  0  0
    5.3094    0.1087   -0.0176 H   0  0  0  0  0  0
    4.0560    2.2281   -0.0375 H   0  0  0  0  0  0
    1.5938    2.2535   -0.0180 H   0  0  0  0  0  0
    5.7695   -3.4901    0.0552 H   0  0  0  0  0  0
    5.9502   -1.9370    0.9154 H   0  0  0  0  0  0
    5.9554   -1.9774   -0.8715 H   0  0  0  0  0  0
    0.5842   -3.7856    1.0377 H   0  0  0  0  0  0
    0.4824   -2.1669    1.7851 H   0  0  0  0  0  0
    2.0357   -3.0631    1.7863 H   0  0  0  0  0  0
  1  2  1  0  0  0
  1 13  1  0  0  0
  1 14  1  0  0  0
  1 15  1  0  0  0
  2  3  1  0  0  0
  3  8  1  0  0  0
  3  4  2  0  0  0
  4  5  1  0  0  0
  4 11  1  0  0  0
  5  6  2  0  0  0
  5  9  1  0  0  0
  6  7  1  0  0  0
  6 16  1  0  0  0
  7  8  2  0  0  0
  7 17  1  0  0  0
  8 18  1  0  0  0
  9 10  1  0  0  0
 10 19  1  0  0  0
 10 20  1  0  0  0
 10 21  1  0  0  0
 11 12  1  0  0  0
 12 22  1  0  0  0
 12 23  1  0  0  0
 12 24  1  0  0  0
M  END
>  <i_m_Spin_multiplicity> (1)
1

>  <s_j_Task> (1)
Single Point

>  <s_j_QM_Method> (1)
DFT(b3lyp-d3)

>  <s_j_QM_Basis> (1)
cc-pvtz(-f)

>  <i_j_Number_of_canonical_orbitals> (1)
378

>  <i_j_Geometry_convergence_category> (1)
0

>  <r_j_Gas_Phase_Energy> (1)
-576.018352167178

>  <r_j_Final_Energy> (1)
-576.018352167178

>  <r_j_HOMO> (1)
-0.222056129599036

>  <r_j_LUMO> (1)
-0.00575393701453057

>  <r_j_Polarizability> (1)
118.865307519989

>  <r_j_QM_Dipole_(debye)> (1)
1.9998745984675

>  <r_j_QM_Dipole_X_(debye)> (1)
0.806446882026638

>  <r_j_QM_Dipole_Y_(debye)> (1)
1.39879160552218

>  <r_j_QM_Dipole_Z_(debye)> (1)
1.18005249052139

>  <r_j_Lowest_Frequency_(cm-1)> (1)
57.2657367484857

>  <r_j_Highest_Frequency_(cm-1)> (1)
3174.08447704919

>  <r_j_2nd_Lowest_Frequency_(cm-1)> (1)
75.3805899466792

>  <i_j_Num_Negative_Frequencies> (1)
0

>  <r_j_Zero_Point_Energy_(kcal/mol)> (1)
123.691033138432

>  <r_j_Entropy_(cal/mol/K)_298.15K_1.00E+00atm> (1)
104.329410966476

>  <r_j_Enthalpy_(kcal/mol)_298.15K_1.00E+00atm> (1)
7.90357729715325

>  <r_j_Free_Energy_(kcal/mol)_298.15K_1.00E+00atm> (1)
-23.2022365825017

>  <r_j_Internal_Energy_(kcal/mol)_298.15K_1.00E+00atm> (1)
7.31109170832597

>  <r_j_Heat_Capacity_(cal/mol/K)_298.15K_1.00E+00atm> (1)
44.1292364808443

>  <r_j_ln(Q)_298.15K_1.00E+00atm> (1)
39.1608454619573

>  <r_j_Total_Internal_Energy_(au)_298.15K_1.00E+00atm> (1)
-575.809586991336

>  <r_j_Total_Enthalpy_(au)_298.15K_1.00E+00atm> (1)
-575.808642805444

>  <r_j_Total_Free_Energy_(au)_298.15K_1.00E+00atm> (1)
-575.858213075482

>  <r_lp_tautomer_probability> (1)
1

>  <r_epik_Ionization_Penalty> (1)
  0.0000

>  <r_epik_Ionization_Penalty_Charging> (1)
  0.0000

>  <r_epik_Ionization_Penalty_Neutral> (1)
  0.0000

>  <r_epik_State_Penalty> (1)
  0.0000

>  <r_epik_Charging_Adjusted_Penalty> (1)
0

>  <i_epik_Tot_Q> (1)
0

>  <i_epik_Tot_abs_Q> (1)
0

>  <s_lp_Force_Field> (1)
S-OPLS

>  <r_lp_Energy> (1)
20.765675

>  <b_lp_Chiralities_Consistent> (1)
1

$$$$
