12489838_Bromodinitrobenzene
                    3D
 Schrodinger Suite 2021-3.
 16 16  0  0  1  0            999 V2000
   -2.0944   -1.2051   -0.0840 C   0  0  0  0  0  0
   -0.7033   -1.2143   -0.0834 C   0  0  0  0  0  0
   -0.0100   -0.0084   -0.0220 C   0  0  0  0  0  0
   -0.6935    1.2101    0.0387 C   0  0  0  0  0  0
   -2.0888    1.2057    0.0373 C   0  0  0  0  0  0
   -2.7894    0.0001   -0.0239 C   0  0  0  0  0  0
   -3.0681    2.8345    0.1175 Br  0  0  0  0  0  0
    0.0014    2.5183    0.1044 N   0  3  1  0  0  0
    0.2259    3.0620   -0.9658 O   0  0  0  0  0  0
    0.2212    2.9548    1.2236 O   0  5  0  0  0  0
    1.4678   -0.0607   -0.0226 N   0  3  1  0  0  0
    1.9895   -1.1707   -0.0835 O   0  0  0  0  0  0
    2.0733    1.0046    0.0379 O   0  5  0  0  0  0
   -2.6421   -2.1398   -0.1313 H   0  0  0  0  0  0
   -0.1365   -2.1349   -0.1291 H   0  0  0  0  0  0
   -3.8731    0.0171   -0.0240 H   0  0  0  0  0  0
  1  6  1  0  0  0
  1  2  2  0  0  0
  1 14  1  0  0  0
  2  3  1  0  0  0
  2 15  1  0  0  0
  3  4  2  0  0  0
  3 11  1  0  0  0
  4  5  1  0  0  0
  4  8  1  0  0  0
  5  6  2  0  0  0
  5  7  1  0  0  0
  6 16  1  0  0  0
  8  9  2  0  0  0
  8 10  1  0  0  0
 11 12  2  0  0  0
 11 13  1  0  0  0
M  END
>  <i_m_Spin_multiplicity> (1)
1

>  <s_j_Task> (1)
Single Point

>  <s_j_QM_Method> (1)
DFT(b3lyp-d3)

>  <s_j_QM_Basis> (1)
cc-pvtz(-f)

>  <i_j_Number_of_canonical_orbitals> (1)
334

>  <i_j_Geometry_convergence_category> (1)
3

>  <r_j_Gas_Phase_Energy> (1)
-3215.07454062773

>  <r_j_Final_Energy> (1)
-3215.07454062773

>  <r_j_HOMO> (1)
-0.283373603127467

>  <r_j_LUMO> (1)
-0.123583269914516

>  <r_j_Polarizability> (1)
115.746043891802

>  <r_j_QM_Dipole_(debye)> (1)
6.32633874634362

>  <r_j_QM_Dipole_X_(debye)> (1)
-5.11375939745902

>  <r_j_QM_Dipole_Y_(debye)> (1)
-3.71946300047154

>  <r_j_QM_Dipole_Z_(debye)> (1)
-0.193963260725736

>  <r_j_Lowest_Frequency_(cm-1)> (1)
-1292.09993846149

>  <r_j_Highest_Frequency_(cm-1)> (1)
3193.37306551656

>  <r_j_2nd_Lowest_Frequency_(cm-1)> (1)
76.9116194529835

>  <i_j_Num_Negative_Frequencies> (1)
1

>  <r_j_Zero_Point_Energy_(kcal/mol)> (1)
60.3672459732924

>  <r_j_Entropy_(cal/mol/K)_298.15K_1.00E+00atm> (1)
96.2087849551794

>  <r_j_Enthalpy_(kcal/mol)_298.15K_1.00E+00atm> (1)
6.25174516064905

>  <r_j_Free_Energy_(kcal/mol)_298.15K_1.00E+00atm> (1)
-22.4329040737377

>  <r_j_Internal_Energy_(kcal/mol)_298.15K_1.00E+00atm> (1)
5.65925957182178

>  <r_j_Heat_Capacity_(cal/mol/K)_298.15K_1.00E+00atm> (1)
34.7601616565854

>  <r_j_ln(Q)_298.15K_1.00E+00atm> (1)
37.8623623878175

>  <r_j_Total_Internal_Energy_(au)_298.15K_1.00E+00atm> (1)
-3214.96932069289

>  <r_j_Total_Enthalpy_(au)_298.15K_1.00E+00atm> (1)
-3214.968376507

>  <r_j_Total_Free_Energy_(au)_298.15K_1.00E+00atm> (1)
-3215.01408840555

>  <r_lp_tautomer_probability> (1)
1

>  <r_epik_Ionization_Penalty> (1)
  0.0000

>  <r_epik_Ionization_Penalty_Charging> (1)
  0.0000

>  <r_epik_Ionization_Penalty_Neutral> (1)
  0.0000

>  <r_epik_State_Penalty> (1)
  0.0000

>  <r_epik_Charging_Adjusted_Penalty> (1)
0

>  <i_epik_Tot_Q> (1)
0

>  <i_epik_Tot_abs_Q> (1)
4

>  <s_lp_Force_Field> (1)
S-OPLS

>  <r_lp_Energy> (1)
18.8626

>  <b_lp_Chiralities_Consistent> (1)
1

$$$$
