12512_1-ethyltertbutylether
                    3D
 Schrodinger Suite 2021-3.
 21 20  0  0  1  0            999 V2000
   -0.4605    1.5505   -0.0003 C   0  0  0  0  0  0
   -0.1026    0.0721    0.0004 C   0  0  0  0  0  0
    1.3144   -0.0128    0.0002 O   0  0  0  0  0  0
    1.9235   -1.3175    0.0000 C   0  0  0  0  0  0
    1.5468   -2.1030   -1.2665 C   0  0  0  0  0  0
    1.5467   -2.1034    1.2663 C   0  0  0  0  0  0
    3.4232   -1.0056    0.0001 C   0  0  0  0  0  0
   -1.5469    1.6855   -0.0001 H   0  0  0  0  0  0
   -0.0462    2.0401   -0.8864 H   0  0  0  0  0  0
   -0.0458    2.0410    0.8851 H   0  0  0  0  0  0
   -0.5335   -0.4185    0.8865 H   0  0  0  0  0  0
   -0.5338   -0.4194   -0.8851 H   0  0  0  0  0  0
    2.1351   -3.0236   -1.3326 H   0  0  0  0  0  0
    1.7472   -1.4979   -2.1560 H   0  0  0  0  0  0
    0.4902   -2.3872   -1.2723 H   0  0  0  0  0  0
    0.4902   -2.3876    1.2720 H   0  0  0  0  0  0
    1.7472   -1.4986    2.1559 H   0  0  0  0  0  0
    2.1350   -3.0240    1.3322 H   0  0  0  0  0  0
    4.0145   -1.9264    0.0000 H   0  0  0  0  0  0
    3.6837   -0.4195    0.8860 H   0  0  0  0  0  0
    3.6837   -0.4194   -0.8857 H   0  0  0  0  0  0
  1  2  1  0  0  0
  1  8  1  0  0  0
  1  9  1  0  0  0
  1 10  1  0  0  0
  2  3  1  0  0  0
  2 11  1  0  0  0
  2 12  1  0  0  0
  3  4  1  0  0  0
  4  5  1  0  0  0
  4  6  1  0  0  0
  4  7  1  0  0  0
  5 13  1  0  0  0
  5 14  1  0  0  0
  5 15  1  0  0  0
  6 16  1  0  0  0
  6 17  1  0  0  0
  6 18  1  0  0  0
  7 19  1  0  0  0
  7 20  1  0  0  0
  7 21  1  0  0  0
M  END
>  <i_m_Spin_multiplicity> (1)
1

>  <s_j_Task> (1)
Single Point

>  <s_j_QM_Method> (1)
DFT(b3lyp-d3)

>  <s_j_QM_Basis> (1)
cc-pvtz(-f)

>  <i_j_Number_of_canonical_orbitals> (1)
286

>  <i_j_Geometry_convergence_category> (1)
1

>  <r_j_Gas_Phase_Energy> (1)
-312.422599702899

>  <r_j_Final_Energy> (1)
-312.422599702899

>  <r_j_HOMO> (1)
-0.257846710743306

>  <r_j_LUMO> (1)
0.0193917828534325

>  <r_j_Polarizability> (1)
79.5396198871662

>  <r_j_QM_Dipole_(debye)> (1)
1.12418677569273

>  <r_j_QM_Dipole_X_(debye)> (1)
-0.552401958669507

>  <r_j_QM_Dipole_Y_(debye)> (1)
-0.979105705562476

>  <r_j_QM_Dipole_Z_(debye)> (1)
-5.9587159165127e-06

>  <r_j_Lowest_Frequency_(cm-1)> (1)
103.788685197471

>  <r_j_Highest_Frequency_(cm-1)> (1)
3071.0357450523

>  <r_j_2nd_Lowest_Frequency_(cm-1)> (1)
136.424957693935

>  <i_j_Num_Negative_Frequencies> (1)
0

>  <r_j_Zero_Point_Energy_(kcal/mol)> (1)
120.354832476186

>  <r_j_Entropy_(cal/mol/K)_298.15K_1.00E+00atm> (1)
88.6132379034269

>  <r_j_Enthalpy_(kcal/mol)_298.15K_1.00E+00atm> (1)
6.13459959961342

>  <r_j_Free_Energy_(kcal/mol)_298.15K_1.00E+00atm> (1)
-20.2854372812933

>  <r_j_Internal_Energy_(kcal/mol)_298.15K_1.00E+00atm> (1)
5.54211401078615

>  <r_j_Heat_Capacity_(cal/mol/K)_298.15K_1.00E+00atm> (1)
33.6171988715204

>  <r_j_ln(Q)_298.15K_1.00E+00atm> (1)
34.2378577029104

>  <r_j_Total_Internal_Energy_(au)_298.15K_1.00E+00atm> (1)
-312.221970146684

>  <r_j_Total_Enthalpy_(au)_298.15K_1.00E+00atm> (1)
-312.221025960792

>  <r_j_Total_Free_Energy_(au)_298.15K_1.00E+00atm> (1)
-312.26312896982

>  <r_lp_tautomer_probability> (1)
1

>  <r_epik_Ionization_Penalty> (1)
  0.0000

>  <r_epik_Ionization_Penalty_Charging> (1)
  0.0000

>  <r_epik_Ionization_Penalty_Neutral> (1)
  0.0000

>  <r_epik_State_Penalty> (1)
  0.0000

>  <r_epik_Charging_Adjusted_Penalty> (1)
0

>  <i_epik_Tot_Q> (1)
0

>  <i_epik_Tot_abs_Q> (1)
0

>  <s_lp_Force_Field> (1)
S-OPLS

>  <r_lp_Energy> (1)
0.809005

>  <b_lp_Chiralities_Consistent> (1)
1

$$$$
