125339_Dibasic ester
                    3D
 Schrodinger Suite 2021-3.
 26 25  0  0  1  0            999 V2000
   -4.0640    2.4864   -0.7615 C   0  0  0  0  0  0
   -2.6294    2.3874   -0.8005 O   0  0  0  0  0  0
   -2.1242    1.2032   -0.3855 C   0  0  0  0  0  0
   -2.8110    0.2801   -0.0039 O   0  0  0  0  0  0
   -0.6116    1.2023   -0.4680 C   0  0  0  0  0  0
    0.0009   -0.1219   -0.0117 C   0  0  0  0  0  0
    1.5283   -0.1234   -0.1136 C   0  0  0  0  0  0
    2.1372   -1.4609    0.3447 C   0  0  0  0  0  0
    3.6472   -1.4675    0.2514 C   0  0  0  0  0  0
    4.4152   -1.5422    1.1856 O   0  0  0  0  0  0
    4.0531   -1.3565   -1.0374 O   0  0  0  0  0  0
    5.4780   -1.3261   -1.2263 C   0  0  0  0  0  0
   -4.3012    3.4882   -1.1197 H   0  0  0  0  0  0
   -4.4330    2.3449    0.2579 H   0  0  0  0  0  0
   -4.5204    1.7298   -1.4055 H   0  0  0  0  0  0
   -0.3317    1.4360   -1.5030 H   0  0  0  0  0  0
   -0.2412    2.0427    0.1327 H   0  0  0  0  0  0
   -0.3099   -0.3254    1.0196 H   0  0  0  0  0  0
   -0.4163   -0.9369   -0.6149 H   0  0  0  0  0  0
    1.8385    0.0726   -1.1466 H   0  0  0  0  0  0
    1.9426    0.6895    0.4977 H   0  0  0  0  0  0
    1.8749   -1.6724    1.3842 H   0  0  0  0  0  0
    1.7459   -2.2719   -0.2811 H   0  0  0  0  0  0
    5.6329   -1.2346   -2.3014 H   0  0  0  0  0  0
    5.9365   -2.2440   -0.8485 H   0  0  0  0  0  0
    5.9188   -0.4751   -0.7000 H   0  0  0  0  0  0
  1  2  1  0  0  0
  1 13  1  0  0  0
  1 14  1  0  0  0
  1 15  1  0  0  0
  2  3  1  0  0  0
  3  4  2  0  0  0
  3  5  1  0  0  0
  5  6  1  0  0  0
  5 16  1  0  0  0
  5 17  1  0  0  0
  6  7  1  0  0  0
  6 18  1  0  0  0
  6 19  1  0  0  0
  7  8  1  0  0  0
  7 20  1  0  0  0
  7 21  1  0  0  0
  8  9  1  0  0  0
  8 22  1  0  0  0
  8 23  1  0  0  0
  9 10  2  0  0  0
  9 11  1  0  0  0
 11 12  1  0  0  0
 12 24  1  0  0  0
 12 25  1  0  0  0
 12 26  1  0  0  0
M  END
>  <i_m_Spin_multiplicity> (1)
1

>  <s_j_Task> (1)
Single Point

>  <s_j_QM_Method> (1)
DFT(b3lyp-d3)

>  <s_j_QM_Basis> (1)
cc-pvtz(-f)

>  <i_j_Number_of_canonical_orbitals> (1)
400

>  <i_j_Geometry_convergence_category> (1)
0

>  <r_j_Gas_Phase_Energy> (1)
-614.441135406896

>  <r_j_Final_Energy> (1)
-614.441135406896

>  <r_j_HOMO> (1)
-0.27662140545065

>  <r_j_LUMO> (1)
-0.0062221234402251

>  <r_j_Polarizability> (1)
108.788213694096

>  <r_j_QM_Dipole_(debye)> (1)
2.96690349403242

>  <r_j_QM_Dipole_X_(debye)> (1)
-0.322550545520405

>  <r_j_QM_Dipole_Y_(debye)> (1)
1.81257828912576

>  <r_j_QM_Dipole_Z_(debye)> (1)
-2.32659352579607

>  <r_j_Lowest_Frequency_(cm-1)> (1)
52.7655085797409

>  <r_j_Highest_Frequency_(cm-1)> (1)
3108.52873831769

>  <r_j_2nd_Lowest_Frequency_(cm-1)> (1)
69.1786447161932

>  <i_j_Num_Negative_Frequencies> (1)
0

>  <r_j_Zero_Point_Energy_(kcal/mol)> (1)
137.299156603932

>  <r_j_Entropy_(cal/mol/K)_298.15K_1.00E+00atm> (1)
113.49689728002

>  <r_j_Enthalpy_(kcal/mol)_298.15K_1.00E+00atm> (1)
8.89994402401235

>  <r_j_Free_Energy_(kcal/mol)_298.15K_1.00E+00atm> (1)
-24.9391559000255

>  <r_j_Internal_Energy_(kcal/mol)_298.15K_1.00E+00atm> (1)
8.30745843518508

>  <r_j_Heat_Capacity_(cal/mol/K)_298.15K_1.00E+00atm> (1)
47.3847983816499

>  <r_j_ln(Q)_298.15K_1.00E+00atm> (1)
42.0924261624461

>  <r_j_Total_Internal_Energy_(au)_298.15K_1.00E+00atm> (1)
-614.209096494337

>  <r_j_Total_Enthalpy_(au)_298.15K_1.00E+00atm> (1)
-614.208152308445

>  <r_j_Total_Free_Energy_(au)_298.15K_1.00E+00atm> (1)
-614.262078347082

>  <r_lp_tautomer_probability> (1)
1

>  <r_epik_Ionization_Penalty> (1)
  0.0000

>  <r_epik_Ionization_Penalty_Charging> (1)
  0.0000

>  <r_epik_Ionization_Penalty_Neutral> (1)
  0.0000

>  <r_epik_State_Penalty> (1)
  0.0000

>  <r_epik_Charging_Adjusted_Penalty> (1)
0

>  <i_epik_Tot_Q> (1)
0

>  <i_epik_Tot_abs_Q> (1)
0

>  <s_lp_Force_Field> (1)
S-OPLS

>  <r_lp_Energy> (1)
3.186327

>  <b_lp_Chiralities_Consistent> (1)
1

>  <s_epik_Chemistry_Notes> (1)
This compound has an ester and may undergo hydrolysis at high or low pH.

$$$$
