12530_Tridecanoic acid
                    3D
 Schrodinger Suite 2021-3.
 40 39  0  0  1  0            999 V2000
   -5.0701    4.1864    0.2656 C   0  0  0  0  0  0
   -4.4095    2.8077    0.1711 C   0  0  0  0  0  0
   -2.8778    2.8738    0.1493 C   0  0  0  0  0  0
   -2.2085    1.4980    0.0568 C   0  0  0  0  0  0
   -0.6774    1.5622    0.0241 C   0  0  0  0  0  0
   -0.0173    0.1804   -0.0728 C   0  0  0  0  0  0
    1.5193    0.2057   -0.0542 C   0  0  0  0  0  0
    2.1625    0.9070   -1.2582 C   0  0  0  0  0  0
    3.6927    0.8120   -1.2775 C   0  0  0  0  0  0
    4.3399    1.5173   -2.4762 C   0  0  0  0  0  0
    5.8671    1.3911   -2.5167 C   0  0  0  0  0  0
    6.5311    2.0710   -3.7139 C   0  0  0  0  0  0
    8.0618    1.7157   -3.8808 C   0  0  0  0  0  0
    8.7388    2.5753   -4.4945 O   0  0  0  0  0  0
    8.4107    0.6015   -3.4096 O   0  5  0  0  0  0
   -6.1631    4.1121    0.2780 H   0  0  0  0  0  0
   -4.7878    4.8170   -0.5855 H   0  0  0  0  0  0
   -4.7605    4.7095    1.1780 H   0  0  0  0  0  0
   -4.7325    2.1861    1.0178 H   0  0  0  0  0  0
   -4.7611    2.2929   -0.7336 H   0  0  0  0  0  0
   -2.5538    3.4939   -0.6989 H   0  0  0  0  0  0
   -2.5239    3.3914    1.0529 H   0  0  0  0  0  0
   -2.5307    0.8797    0.9077 H   0  0  0  0  0  0
   -2.5682    0.9807   -0.8446 H   0  0  0  0  0  0
   -0.3638    2.1842   -0.8235 H   0  0  0  0  0  0
   -0.3137    2.0745    0.9270 H   0  0  0  0  0  0
   -0.3796   -0.4414    0.7587 H   0  0  0  0  0  0
   -0.3584   -0.3156   -0.9934 H   0  0  0  0  0  0
    1.8636    0.6866    0.8732 H   0  0  0  0  0  0
    1.8883   -0.8282   -0.0114 H   0  0  0  0  0  0
    1.7605    0.4706   -2.1850 H   0  0  0  0  0  0
    1.8722    1.9664   -1.2738 H   0  0  0  0  0  0
    4.0946    1.2362   -0.3453 H   0  0  0  0  0  0
    3.9915   -0.2463   -1.2780 H   0  0  0  0  0  0
    3.9173    1.1040   -3.4052 H   0  0  0  0  0  0
    4.0513    2.5801   -2.4657 H   0  0  0  0  0  0
    6.2880    1.7988   -1.5850 H   0  0  0  0  0  0
    6.1709    0.3378   -2.5381 H   0  0  0  0  0  0
    6.0208    1.7523   -4.6382 H   0  0  0  0  0  0
    6.4228    3.1628   -3.6682 H   0  0  0  0  0  0
  1  2  1  0  0  0
  1 16  1  0  0  0
  1 17  1  0  0  0
  1 18  1  0  0  0
  2  3  1  0  0  0
  2 19  1  0  0  0
  2 20  1  0  0  0
  3  4  1  0  0  0
  3 21  1  0  0  0
  3 22  1  0  0  0
  4  5  1  0  0  0
  4 23  1  0  0  0
  4 24  1  0  0  0
  5  6  1  0  0  0
  5 25  1  0  0  0
  5 26  1  0  0  0
  6  7  1  0  0  0
  6 27  1  0  0  0
  6 28  1  0  0  0
  7  8  1  0  0  0
  7 29  1  0  0  0
  7 30  1  0  0  0
  8  9  1  0  0  0
  8 31  1  0  0  0
  8 32  1  0  0  0
  9 10  1  0  0  0
  9 33  1  0  0  0
  9 34  1  0  0  0
 10 11  1  0  0  0
 10 35  1  0  0  0
 10 36  1  0  0  0
 11 12  1  0  0  0
 11 37  1  0  0  0
 11 38  1  0  0  0
 12 13  1  0  0  0
 12 39  1  0  0  0
 12 40  1  0  0  0
 13 14  2  0  0  0
 13 15  1  0  0  0
M  END
>  <s_lp_Force_Field> (1)
S-OPLS

>  <r_lp_Energy> (1)
9.434903

>  <b_lp_Chiralities_Consistent> (1)
1

>  <r_epik_Ionization_Penalty> (1)
  0.0049

>  <r_epik_Ionization_Penalty_Charging> (1)
  0.0049

>  <r_epik_Ionization_Penalty_Neutral> (1)
  0.0000

>  <r_epik_State_Penalty> (1)
  0.0035

>  <r_epik_Charging_Adjusted_Penalty> (1)
0.00839777765143097

>  <i_epik_Tot_Q> (1)
-1

>  <i_epik_Tot_abs_Q> (1)
1

>  <i_m_Spin_multiplicity> (1)
1

>  <s_j_Task> (1)
Single Point

>  <s_j_QM_Method> (1)
DFT(b3lyp-d3)

>  <s_j_QM_Basis> (1)
6-31g**

>  <i_j_Number_of_canonical_orbitals> (1)
350

>  <i_j_Geometry_convergence_category> (1)
3

>  <r_j_Gas_Phase_Energy> (1)
-661.021723232065

>  <r_j_Final_Energy> (1)
-661.021723232065

>  <r_j_HOMO> (1)
-0.00454556327252331

>  <r_j_LUMO> (1)
0.13983501219076

>  <r_j_Polarizability> (1)
150.490111408413

>  <r_j_QM_Dipole_(debye)> (1)
29.4583344841845

>  <r_j_QM_Dipole_X_(debye)> (1)
-27.4939162517692

>  <r_j_QM_Dipole_Y_(debye)> (1)
0.353712730747109

>  <r_j_QM_Dipole_Z_(debye)> (1)
10.5713256986483

>  <r_j_Lowest_Frequency_(cm-1)> (1)
18.0295126011352

>  <r_j_Highest_Frequency_(cm-1)> (1)
3101.66011461945

>  <r_j_2nd_Lowest_Frequency_(cm-1)> (1)
26.251068041266

>  <i_j_Num_Negative_Frequencies> (1)
0

>  <r_j_Zero_Point_Energy_(kcal/mol)> (1)
228.249367335989

>  <r_j_Entropy_(cal/mol/K)_298.15K_1.00E+00atm> (1)
136.712791500895

>  <r_j_Enthalpy_(kcal/mol)_298.15K_1.00E+00atm> (1)
11.8543905142645

>  <r_j_Free_Energy_(kcal/mol)_298.15K_1.00E+00atm> (1)
-28.9065282717275

>  <r_j_Internal_Energy_(kcal/mol)_298.15K_1.00E+00atm> (1)
11.2619049254372

>  <r_j_Heat_Capacity_(cal/mol/K)_298.15K_1.00E+00atm> (1)
65.5868260630512

>  <r_j_ln(Q)_298.15K_1.00E+00atm> (1)
48.7885761558236

>  <r_j_Total_Internal_Energy_(au)_298.15K_1.00E+00atm> (1)
-660.640037721786

>  <r_j_Total_Enthalpy_(au)_298.15K_1.00E+00atm> (1)
-660.639093535894

>  <r_j_Total_Free_Energy_(au)_298.15K_1.00E+00atm> (1)
-660.704050195092

$$$$
