12535_n-Triacontane
                    3D
 Schrodinger Suite 2021-3.
 92 91  0  0  1  0            999 V2000
  -15.0047    4.2257   -1.8777 C   0  0  0  0  0  0
  -13.4798    4.1368   -1.7660 C   0  0  0  0  0  0
  -12.9606    2.6942   -1.8460 C   0  0  0  0  0  0
  -11.4438    2.5554   -1.6440 C   0  0  0  0  0  0
  -10.5992    3.1994   -2.7537 C   0  0  0  0  0  0
   -9.0858    2.9815   -2.5999 C   0  0  0  0  0  0
   -8.4708    3.6688   -1.3732 C   0  0  0  0  0  0
   -6.9468    3.5218   -1.2990 C   0  0  0  0  0  0
   -6.3354    4.2032   -0.0673 C   0  0  0  0  0  0
   -4.8012    4.1499   -0.0082 C   0  0  0  0  0  0
   -4.2200    2.7382    0.1443 C   0  0  0  0  0  0
   -2.6903    2.7238    0.2415 C   0  0  0  0  0  0
   -2.1018    1.3154    0.3819 C   0  0  0  0  0  0
   -0.5702    1.2992    0.4326 C   0  0  0  0  0  0
    0.0236   -0.1083    0.5588 C   0  0  0  0  0  0
    1.5561   -0.1211    0.5540 C   0  0  0  0  0  0
    2.1598   -1.5260    0.6613 C   0  0  0  0  0  0
    3.6909   -1.5310    0.5927 C   0  0  0  0  0  0
    4.3078   -2.9317    0.6768 C   0  0  0  0  0  0
    5.8340   -2.9255    0.5365 C   0  0  0  0  0  0
    6.4664   -4.3207    0.5944 C   0  0  0  0  0  0
    7.9833   -4.3008    0.3760 C   0  0  0  0  0  0
    8.6324   -5.6890    0.4063 C   0  0  0  0  0  0
   10.1355   -5.6533    0.1065 C   0  0  0  0  0  0
   10.7935   -7.0392    0.1100 C   0  0  0  0  0  0
   12.3031   -7.0244   -0.1799 C   0  0  0  0  0  0
   12.6685   -6.5483   -1.5924 C   0  0  0  0  0  0
   14.1700   -6.6189   -1.8926 C   0  0  0  0  0  0
   14.5273   -6.1289   -3.3011 C   0  0  0  0  0  0
   16.0275   -6.1979   -3.6009 C   0  0  0  0  0  0
  -15.3535    5.2620   -1.8192 H   0  0  0  0  0  0
  -15.4930    3.6629   -1.0736 H   0  0  0  0  0  0
  -15.3547    3.8095   -2.8296 H   0  0  0  0  0  0
  -13.0235    4.7419   -2.5590 H   0  0  0  0  0  0
  -13.1526    4.5831   -0.8165 H   0  0  0  0  0  0
  -13.4777    2.0924   -1.0861 H   0  0  0  0  0  0
  -13.2418    2.2618   -2.8174 H   0  0  0  0  0  0
  -11.1764    2.9896   -0.6716 H   0  0  0  0  0  0
  -11.1858    1.4891   -1.5819 H   0  0  0  0  0  0
  -10.9240    2.7925   -3.7213 H   0  0  0  0  0  0
  -10.7978    4.2784   -2.7960 H   0  0  0  0  0  0
   -8.8739    1.9033   -2.5564 H   0  0  0  0  0  0
   -8.5798    3.3530   -3.5015 H   0  0  0  0  0  0
   -8.7337    4.7368   -1.3883 H   0  0  0  0  0  0
   -8.9125    3.2617   -0.4544 H   0  0  0  0  0  0
   -6.6917    2.4540   -1.3025 H   0  0  0  0  0  0
   -6.4944    3.9447   -2.2080 H   0  0  0  0  0  0
   -6.6558    5.2538   -0.0507 H   0  0  0  0  0  0
   -6.7502    3.7460    0.8427 H   0  0  0  0  0  0
   -4.3883    4.6142   -0.9156 H   0  0  0  0  0  0
   -4.4543    4.7672    0.8316 H   0  0  0  0  0  0
   -4.6485    2.2649    1.0399 H   0  0  0  0  0  0
   -4.5268    2.1134   -0.7046 H   0  0  0  0  0  0
   -2.2674    3.2053   -0.6521 H   0  0  0  0  0  0
   -2.3714    3.3394    1.0949 H   0  0  0  0  0  0
   -2.5036    0.8405    1.2885 H   0  0  0  0  0  0
   -2.4420    0.6950   -0.4598 H   0  0  0  0  0  0
   -0.1744    1.7782   -0.4746 H   0  0  0  0  0  0
   -0.2255    1.9172    1.2742 H   0  0  0  0  0  0
   -0.3448   -0.5796    1.4813 H   0  0  0  0  0  0
   -0.3457   -0.7329   -0.2675 H   0  0  0  0  0  0
    1.9168    0.3567   -0.3684 H   0  0  0  0  0  0
    1.9296    0.5003    1.3806 H   0  0  0  0  0  0
    1.8319   -1.9954    1.5999 H   0  0  0  0  0  0
    1.7598   -2.1552   -0.1470 H   0  0  0  0  0  0
    4.0095   -1.0531   -0.3450 H   0  0  0  0  0  0
    4.0952   -0.9054    1.4014 H   0  0  0  0  0  0
    4.0272   -3.4000    1.6311 H   0  0  0  0  0  0
    3.8752   -3.5663   -0.1101 H   0  0  0  0  0  0
    6.1041   -2.4478   -0.4165 H   0  0  0  0  0  0
    6.2711   -2.2943    1.3235 H   0  0  0  0  0  0
    6.2390   -4.7875    1.5635 H   0  0  0  0  0  0
    6.0001   -4.9623   -0.1672 H   0  0  0  0  0  0
    8.1989   -3.8245   -0.5915 H   0  0  0  0  0  0
    8.4540   -3.6618    1.1368 H   0  0  0  0  0  0
    8.4617   -6.1539    1.3878 H   0  0  0  0  0  0
    8.1335   -6.3390   -0.3271 H   0  0  0  0  0  0
   10.2861   -5.1720   -0.8685 H   0  0  0  0  0  0
   10.6409   -5.0109    0.8423 H   0  0  0  0  0  0
   10.6204   -7.5111    1.0867 H   0  0  0  0  0  0
   10.2906   -7.6796   -0.6291 H   0  0  0  0  0  0
   12.8099   -6.3879    0.5598 H   0  0  0  0  0  0
   12.7041   -8.0365   -0.0334 H   0  0  0  0  0  0
   12.1218   -7.1546   -2.3296 H   0  0  0  0  0  0
   12.3278   -5.5152   -1.7387 H   0  0  0  0  0  0
   14.7190   -6.0215   -1.1503 H   0  0  0  0  0  0
   14.5213   -7.6533   -1.7668 H   0  0  0  0  0  0
   13.9760   -6.7252   -4.0410 H   0  0  0  0  0  0
   14.1751   -5.0953   -3.4231 H   0  0  0  0  0  0
   16.2532   -5.8419   -4.6115 H   0  0  0  0  0  0
   16.3993   -7.2257   -3.5183 H   0  0  0  0  0  0
   16.5990   -5.5837   -2.8954 H   0  0  0  0  0  0
  1  2  1  0  0  0
  1 31  1  0  0  0
  1 32  1  0  0  0
  1 33  1  0  0  0
  2  3  1  0  0  0
  2 34  1  0  0  0
  2 35  1  0  0  0
  3  4  1  0  0  0
  3 36  1  0  0  0
  3 37  1  0  0  0
  4  5  1  0  0  0
  4 38  1  0  0  0
  4 39  1  0  0  0
  5  6  1  0  0  0
  5 40  1  0  0  0
  5 41  1  0  0  0
  6  7  1  0  0  0
  6 42  1  0  0  0
  6 43  1  0  0  0
  7  8  1  0  0  0
  7 44  1  0  0  0
  7 45  1  0  0  0
  8  9  1  0  0  0
  8 46  1  0  0  0
  8 47  1  0  0  0
  9 10  1  0  0  0
  9 48  1  0  0  0
  9 49  1  0  0  0
 10 11  1  0  0  0
 10 50  1  0  0  0
 10 51  1  0  0  0
 11 12  1  0  0  0
 11 52  1  0  0  0
 11 53  1  0  0  0
 12 13  1  0  0  0
 12 54  1  0  0  0
 12 55  1  0  0  0
 13 14  1  0  0  0
 13 56  1  0  0  0
 13 57  1  0  0  0
 14 15  1  0  0  0
 14 58  1  0  0  0
 14 59  1  0  0  0
 15 16  1  0  0  0
 15 60  1  0  0  0
 15 61  1  0  0  0
 16 17  1  0  0  0
 16 62  1  0  0  0
 16 63  1  0  0  0
 17 18  1  0  0  0
 17 64  1  0  0  0
 17 65  1  0  0  0
 18 19  1  0  0  0
 18 66  1  0  0  0
 18 67  1  0  0  0
 19 20  1  0  0  0
 19 68  1  0  0  0
 19 69  1  0  0  0
 20 21  1  0  0  0
 20 70  1  0  0  0
 20 71  1  0  0  0
 21 22  1  0  0  0
 21 72  1  0  0  0
 21 73  1  0  0  0
 22 23  1  0  0  0
 22 74  1  0  0  0
 22 75  1  0  0  0
 23 24  1  0  0  0
 23 76  1  0  0  0
 23 77  1  0  0  0
 24 25  1  0  0  0
 24 78  1  0  0  0
 24 79  1  0  0  0
 25 26  1  0  0  0
 25 80  1  0  0  0
 25 81  1  0  0  0
 26 27  1  0  0  0
 26 82  1  0  0  0
 26 83  1  0  0  0
 27 28  1  0  0  0
 27 84  1  0  0  0
 27 85  1  0  0  0
 28 29  1  0  0  0
 28 86  1  0  0  0
 28 87  1  0  0  0
 29 30  1  0  0  0
 29 88  1  0  0  0
 29 89  1  0  0  0
 30 90  1  0  0  0
 30 91  1  0  0  0
 30 92  1  0  0  0
M  END
> <i_m_Spin_multiplicity>
1

> <s_j_Task>
Single Point

> <s_j_QM_Method>
DFT(b3lyp-d3)

> <s_j_QM_Basis>
cc-pvtz(-f)

> <i_j_Number_of_canonical_orbitals>
1238

> <i_j_Geometry_convergence_category>
3

> <r_j_Gas_Phase_Energy>
-1181.08505802216

> <r_j_Final_Energy>
-1181.08505802216

> <r_j_HOMO>
-0.274637143854797

> <r_j_LUMO>
0.00254194213421158

> <r_j_Polarizability>
376.177327443689

> <r_j_QM_Dipole_(debye)>
0.0304714999267649

> <r_j_QM_Dipole_X_(debye)>
0.00445303162517764

> <r_j_QM_Dipole_Y_(debye)>
0.0252764824437793

> <r_j_QM_Dipole_Z_(debye)>
0.0164250495403002

> <r_j_Lowest_Frequency_(cm-1)>
16.9308054074532

> <r_j_Highest_Frequency_(cm-1)>
3046.01733399894

> <r_j_2nd_Lowest_Frequency_(cm-1)>
24.838936813314

> <i_j_Num_Negative_Frequencies>
0

> <r_j_Zero_Point_Energy_(kcal/mol)>
547.538379091107

> <r_j_Entropy_(cal/mol/K)_298.15K_1.00E+00atm>
217.469434383261

> <r_j_Enthalpy_(kcal/mol)_298.15K_1.00E+00atm>
23.7734982161245

> <r_j_Free_Energy_(kcal/mol)_298.15K_1.00E+00atm>
-41.0650136452447

> <r_j_Internal_Energy_(kcal/mol)_298.15K_1.00E+00atm>
23.1810126272972

> <r_j_Heat_Capacity_(cal/mol/K)_298.15K_1.00E+00atm>
142.358579786227

> <r_j_ln(Q)_298.15K_1.00E+00atm>
69.30972570409

> <r_j_Total_Internal_Energy_(au)_298.15K_1.00E+00atm>
-1180.17555877314

> <r_j_Total_Enthalpy_(au)_298.15K_1.00E+00atm>
-1180.17461458725

> <r_j_Total_Free_Energy_(au)_298.15K_1.00E+00atm>
-1180.27794133363

> <r_lp_tautomer_probability>
1

> <r_epik_Ionization_Penalty>
  0.0000

> <r_epik_Ionization_Penalty_Charging>
  0.0000

> <r_epik_Ionization_Penalty_Neutral>
  0.0000

> <r_epik_State_Penalty>
  0.0000

> <r_epik_Charging_Adjusted_Penalty>
0

> <i_epik_Tot_Q>
0

> <i_epik_Tot_abs_Q>
0

> <s_lp_Force_Field>
S-OPLS

> <r_lp_Energy>
16.3243

> <b_lp_Chiralities_Consistent>
1

$$$$
