1254_Menthol
                    3D
 Schrodinger Suite 2021-3.
 31 31  0  0  1  0            999 V2000
   -0.3007   -4.4128    0.1060 C   0  0  0  0  0  0
   -0.7305   -2.9443    0.0401 C   0  0  0  0  0  0
   -0.2450   -2.1509    1.2679 C   0  0  0  0  0  0
   -0.5978   -0.6595    1.1586 C   0  0  0  0  0  0
    0.0061   -0.0125   -0.1125 C   0  0  0  0  0  0
   -0.6008   -0.7912   -1.3106 C   0  0  0  0  0  0
   -0.2528   -2.2791   -1.2635 C   0  0  0  0  0  0
   -0.2187   -0.3157   -2.6017 O   0  0  0  0  0  0
    1.5617    0.0751   -0.0889 C   0  0  0  0  0  0
    2.0821    0.6132    1.2556 C   0  0  0  0  0  0
    2.1213    0.9449   -1.2293 C   0  0  0  0  0  0
    0.7929   -4.4968    0.1054 H   0  0  0  0  0  0
   -0.6780   -4.9773   -0.7537 H   0  0  0  0  0  0
   -0.6718   -4.8960    1.0165 H   0  0  0  0  0  0
   -1.8312   -2.9081    0.0443 H   0  0  0  0  0  0
   -0.6854   -2.5755    2.1785 H   0  0  0  0  0  0
    0.8426   -2.2708    1.3680 H   0  0  0  0  0  0
   -1.6910   -0.5577    1.1163 H   0  0  0  0  0  0
   -0.2831   -0.1205    2.0561 H   0  0  0  0  0  0
   -0.3663    1.0242   -0.1667 H   0  0  0  0  0  0
   -1.6979   -0.7037   -1.2107 H   0  0  0  0  0  0
    0.8327   -2.3983   -1.3712 H   0  0  0  0  0  0
   -0.7059   -2.7703   -2.1321 H   0  0  0  0  0  0
   -0.4153    0.6300   -2.6364 H   0  0  0  0  0  0
    1.9702   -0.9352   -0.2169 H   0  0  0  0  0  0
    1.6229    1.5807    1.4949 H   0  0  0  0  0  0
    3.1656    0.7651    1.2114 H   0  0  0  0  0  0
    1.8824   -0.0671    2.0880 H   0  0  0  0  0  0
    1.7067    1.9608   -1.1784 H   0  0  0  0  0  0
    1.8852    0.5260   -2.2070 H   0  0  0  0  0  0
    3.2100    1.0343   -1.1438 H   0  0  0  0  0  0
  1  2  1  0  0  0
  1 12  1  0  0  0
  1 13  1  0  0  0
  1 14  1  0  0  0
  2  7  1  0  0  0
  2  3  1  0  0  0
  2 15  1  0  0  0
  3  4  1  0  0  0
  3 16  1  0  0  0
  3 17  1  0  0  0
  4  5  1  0  0  0
  4 18  1  0  0  0
  4 19  1  0  0  0
  5  6  1  0  0  0
  5  9  1  0  0  0
  5 20  1  0  0  0
  6  7  1  0  0  0
  6  8  1  0  0  0
  6 21  1  0  0  0
  7 22  1  0  0  0
  7 23  1  0  0  0
  8 24  1  0  0  0
  9 10  1  0  0  0
  9 11  1  0  0  0
  9 25  1  0  0  0
 10 26  1  0  0  0
 10 27  1  0  0  0
 10 28  1  0  0  0
 11 29  1  0  0  0
 11 30  1  0  0  0
 11 31  1  0  0  0
M  END
>  <i_m_Spin_multiplicity> (1)
1

>  <s_j_Task> (1)
Single Point

>  <s_j_QM_Method> (1)
DFT(b3lyp-d3)

>  <s_j_QM_Basis> (1)
cc-pvtz(-f)

>  <i_j_Number_of_canonical_orbitals> (1)
430

>  <i_j_Geometry_convergence_category> (1)
0

>  <r_j_Gas_Phase_Energy> (1)
-468.535799402671

>  <r_j_Final_Energy> (1)
-468.535799402671

>  <r_j_HOMO> (1)
-0.260752098795665

>  <r_j_LUMO> (1)
0.0154223562223462

>  <r_j_Polarizability> (1)
120.470339744381

>  <r_j_QM_Dipole_(debye)> (1)
1.40830296028877

>  <r_j_QM_Dipole_X_(debye)> (1)
-0.650583523218516

>  <r_j_QM_Dipole_Y_(debye)> (1)
0.565493980626136

>  <r_j_QM_Dipole_Z_(debye)> (1)
1.11367628382322

>  <r_j_Lowest_Frequency_(cm-1)> (1)
78.8933716984914

>  <r_j_Highest_Frequency_(cm-1)> (1)
3752.89105660203

>  <r_j_2nd_Lowest_Frequency_(cm-1)> (1)
103.180971812567

>  <i_j_Num_Negative_Frequencies> (1)
0

>  <r_j_Zero_Point_Energy_(kcal/mol)> (1)
180.275178522951

>  <r_j_Entropy_(cal/mol/K)_298.15K_1.00E+00atm> (1)
101.181595175702

>  <r_j_Enthalpy_(kcal/mol)_298.15K_1.00E+00atm> (1)
7.77313564380661

>  <r_j_Free_Energy_(kcal/mol)_298.15K_1.00E+00atm> (1)
-22.3941569578291

>  <r_j_Internal_Energy_(kcal/mol)_298.15K_1.00E+00atm> (1)
7.18065005497934

>  <r_j_Heat_Capacity_(cal/mol/K)_298.15K_1.00E+00atm> (1)
47.3108116142276

>  <r_j_ln(Q)_298.15K_1.00E+00atm> (1)
37.796964820958

>  <r_j_Total_Internal_Energy_(au)_298.15K_1.00E+00atm> (1)
-468.237069522821

>  <r_j_Total_Enthalpy_(au)_298.15K_1.00E+00atm> (1)
-468.236125336929

>  <r_j_Total_Free_Energy_(au)_298.15K_1.00E+00atm> (1)
-468.284199978099

>  <r_lp_tautomer_probability> (1)
1

>  <r_epik_Ionization_Penalty> (1)
  0.0000

>  <r_epik_Ionization_Penalty_Charging> (1)
  0.0000

>  <r_epik_Ionization_Penalty_Neutral> (1)
  0.0000

>  <r_epik_State_Penalty> (1)
  0.0000

>  <r_epik_Charging_Adjusted_Penalty> (1)
0

>  <i_epik_Tot_Q> (1)
0

>  <i_epik_Tot_abs_Q> (1)
0

>  <s_lp_Force_Field> (1)
S-OPLS

>  <r_lp_Energy> (1)
13.7202

>  <b_lp_Chiralities_Consistent> (1)
1

$$$$
