12566_4-methylbiphenyl
                    3D
 Schrodinger Suite 2021-3.
 25 26  0  0  1  0            999 V2000
   -0.0512   -0.0030   -0.0002 C   0  0  0  0  0  0
    1.4588    0.0086    0.0004 C   0  0  0  0  0  0
    2.1831    1.2023   -0.0805 C   0  0  0  0  0  0
    3.5767    1.2031   -0.0828 C   0  0  0  0  0  0
    4.3011    0.0052   -0.0012 C   0  0  0  0  0  0
    3.5725   -1.1935    0.0810 C   0  0  0  0  0  0
    2.1819   -1.1894    0.0809 C   0  0  0  0  0  0
    5.7848    0.0024   -0.0008 C   0  0  0  0  0  0
    6.5055   -0.9960   -0.6770 C   0  0  0  0  0  0
    7.8988   -0.9995   -0.6750 C   0  0  0  0  0  0
    8.6037   -0.0024    0.0003 C   0  0  0  0  0  0
    7.9016    0.9970    0.6753 C   0  0  0  0  0  0
    6.5083    0.9980    0.6762 C   0  0  0  0  0  0
   -0.4615    1.0102   -0.0333 H   0  0  0  0  0  0
   -0.4443   -0.4953    0.8967 H   0  0  0  0  0  0
   -0.4431   -0.5512   -0.8649 H   0  0  0  0  0  0
    1.6496    2.1469   -0.1518 H   0  0  0  0  0  0
    4.1102    2.1449   -0.1724 H   0  0  0  0  0  0
    4.1051   -2.1360    0.1703 H   0  0  0  0  0  0
    1.6453   -2.1326    0.1535 H   0  0  0  0  0  0
    5.9668   -1.7616   -1.2277 H   0  0  0  0  0  0
    8.4354   -1.7782   -1.2098 H   0  0  0  0  0  0
    9.6898   -0.0042    0.0008 H   0  0  0  0  0  0
    8.4403    1.7736    1.2110 H   0  0  0  0  0  0
    5.9715    1.7647    1.2270 H   0  0  0  0  0  0
  1  2  1  0  0  0
  1 14  1  0  0  0
  1 15  1  0  0  0
  1 16  1  0  0  0
  2  7  1  0  0  0
  2  3  2  0  0  0
  3  4  1  0  0  0
  3 17  1  0  0  0
  4  5  2  0  0  0
  4 18  1  0  0  0
  5  6  1  0  0  0
  5  8  1  0  0  0
  6  7  2  0  0  0
  6 19  1  0  0  0
  7 20  1  0  0  0
  8 13  1  0  0  0
  8  9  2  0  0  0
  9 10  1  0  0  0
  9 21  1  0  0  0
 10 11  2  0  0  0
 10 22  1  0  0  0
 11 12  1  0  0  0
 11 23  1  0  0  0
 12 13  2  0  0  0
 12 24  1  0  0  0
 13 25  1  0  0  0
M  END
>  <i_m_Spin_multiplicity> (1)
1

>  <s_j_Task> (1)
Single Point

>  <s_j_QM_Method> (1)
DFT(b3lyp-d3)

>  <s_j_QM_Basis> (1)
cc-pvtz(-f)

>  <i_j_Number_of_canonical_orbitals> (1)
397

>  <i_j_Geometry_convergence_category> (1)
0

>  <r_j_Gas_Phase_Energy> (1)
-502.796204254793

>  <r_j_Final_Energy> (1)
-502.796204254793

>  <r_j_HOMO> (1)
-0.225476221791039

>  <r_j_LUMO> (1)
-0.0359477737452696

>  <r_j_Polarizability> (1)
151.572700811853

>  <r_j_QM_Dipole_(debye)> (1)
0.507608252501297

>  <r_j_QM_Dipole_X_(debye)> (1)
-0.505891145299755

>  <r_j_QM_Dipole_Y_(debye)> (1)
-0.0417088928886267

>  <r_j_QM_Dipole_Z_(debye)> (1)
0.000809548471482451

>  <r_j_Lowest_Frequency_(cm-1)> (1)
88.0640830144429

>  <r_j_Highest_Frequency_(cm-1)> (1)
3148.49578525156

>  <r_j_2nd_Lowest_Frequency_(cm-1)> (1)
99.7700571342685

>  <i_j_Num_Negative_Frequencies> (1)
0

>  <r_j_Zero_Point_Energy_(kcal/mol)> (1)
130.564727516743

>  <r_j_Entropy_(cal/mol/K)_298.15K_1.00E+00atm> (1)
98.7201259116478

>  <r_j_Enthalpy_(kcal/mol)_298.15K_1.00E+00atm> (1)
7.01534602541667

>  <r_j_Free_Energy_(kcal/mol)_298.15K_1.00E+00atm> (1)
-22.4180595151411

>  <r_j_Internal_Energy_(kcal/mol)_298.15K_1.00E+00atm> (1)
6.4228604365894

>  <r_j_Heat_Capacity_(cal/mol/K)_298.15K_1.00E+00atm> (1)
41.836374561141

>  <r_j_ln(Q)_298.15K_1.00E+00atm> (1)
37.8373076710843

>  <r_j_Total_Internal_Energy_(au)_298.15K_1.00E+00atm> (1)
-502.577900636278

>  <r_j_Total_Enthalpy_(au)_298.15K_1.00E+00atm> (1)
-502.576956450386

>  <r_j_Total_Free_Energy_(au)_298.15K_1.00E+00atm> (1)
-502.623861568074

>  <r_lp_tautomer_probability> (1)
1

>  <r_epik_Ionization_Penalty> (1)
  0.0000

>  <r_epik_Ionization_Penalty_Charging> (1)
  0.0000

>  <r_epik_Ionization_Penalty_Neutral> (1)
  0.0000

>  <r_epik_State_Penalty> (1)
  0.0000

>  <r_epik_Charging_Adjusted_Penalty> (1)
0

>  <i_epik_Tot_Q> (1)
0

>  <i_epik_Tot_abs_Q> (1)
0

>  <s_lp_Force_Field> (1)
S-OPLS

>  <r_lp_Energy> (1)
18.7176

>  <b_lp_Chiralities_Consistent> (1)
1

$$$$
