12563_2-methylbiphenyl
                    3D
 Schrodinger Suite 2021-3.
 25 26  0  0  1  0            999 V2000
   -0.0280    0.0442   -0.0010 C   0  0  0  0  0  0
    1.4829    0.0223   -0.0004 C   0  0  0  0  0  0
    2.2175    1.2129   -0.0001 C   0  0  0  0  0  0
    3.6124    1.2055    0.0003 C   0  0  0  0  0  0
    4.2997   -0.0064    0.0004 C   0  0  0  0  0  0
    3.5821   -1.2022    0.0002 C   0  0  0  0  0  0
    2.1831   -1.2018   -0.0001 C   0  0  0  0  0  0
    1.4461   -2.5016    0.0000 C   0  0  0  0  0  0
    1.0966   -3.1231    1.2061 C   0  0  0  0  0  0
    0.4102   -4.3374    1.2069 C   0  0  0  0  0  0
    0.0640   -4.9468    0.0002 C   0  0  0  0  0  0
    0.4088   -4.3368   -1.2065 C   0  0  0  0  0  0
    1.0952   -3.1225   -1.2059 C   0  0  0  0  0  0
   -0.4103    1.0685    0.0000 H   0  0  0  0  0  0
   -0.4325   -0.4743    0.8751 H   0  0  0  0  0  0
   -0.4318   -0.4721   -0.8788 H   0  0  0  0  0  0
    1.6855    2.1611   -0.0003 H   0  0  0  0  0  0
    4.1587    2.1445    0.0006 H   0  0  0  0  0  0
    5.3857   -0.0236    0.0007 H   0  0  0  0  0  0
    4.1062   -2.1540    0.0004 H   0  0  0  0  0  0
    1.3684   -2.6476    2.1444 H   0  0  0  0  0  0
    0.1472   -4.8086    2.1498 H   0  0  0  0  0  0
   -0.4703   -5.8925    0.0003 H   0  0  0  0  0  0
    0.1446   -4.8075   -2.1494 H   0  0  0  0  0  0
    1.3658   -2.6466   -2.1444 H   0  0  0  0  0  0
  1  2  1  0  0  0
  1 14  1  0  0  0
  1 15  1  0  0  0
  1 16  1  0  0  0
  2  7  1  0  0  0
  2  3  2  0  0  0
  3  4  1  0  0  0
  3 17  1  0  0  0
  4  5  2  0  0  0
  4 18  1  0  0  0
  5  6  1  0  0  0
  5 19  1  0  0  0
  6  7  2  0  0  0
  6 20  1  0  0  0
  7  8  1  0  0  0
  8 13  1  0  0  0
  8  9  2  0  0  0
  9 10  1  0  0  0
  9 21  1  0  0  0
 10 11  2  0  0  0
 10 22  1  0  0  0
 11 12  1  0  0  0
 11 23  1  0  0  0
 12 13  2  0  0  0
 12 24  1  0  0  0
 13 25  1  0  0  0
M  END
>  <i_m_Spin_multiplicity> (1)
1

>  <s_j_Task> (1)
Single Point

>  <s_j_QM_Method> (1)
DFT(b3lyp-d3)

>  <s_j_QM_Basis> (1)
cc-pvtz(-f)

>  <i_j_Number_of_canonical_orbitals> (1)
398

>  <i_j_Geometry_convergence_category> (1)
0

>  <r_j_Gas_Phase_Energy> (1)
-502.792789297417

>  <r_j_Final_Energy> (1)
-502.792789297417

>  <r_j_HOMO> (1)
-0.247673062095848

>  <r_j_LUMO> (1)
-0.0358176844300419

>  <r_j_Polarizability> (1)
142.783216264998

>  <r_j_QM_Dipole_(debye)> (1)
0.395785494004246

>  <r_j_QM_Dipole_X_(debye)> (1)
-0.38630422056545

>  <r_j_QM_Dipole_Y_(debye)> (1)
-0.0861115590238772

>  <r_j_QM_Dipole_Z_(debye)> (1)
-7.64197800992266e-05

>  <r_j_Lowest_Frequency_(cm-1)> (1)
57.2397925249681

>  <r_j_Highest_Frequency_(cm-1)> (1)
3147.19883659844

>  <r_j_2nd_Lowest_Frequency_(cm-1)> (1)
103.119515761359

>  <i_j_Num_Negative_Frequencies> (1)
0

>  <r_j_Zero_Point_Energy_(kcal/mol)> (1)
130.518717101375

>  <r_j_Entropy_(cal/mol/K)_298.15K_1.00E+00atm> (1)
98.6311978311935

>  <r_j_Enthalpy_(kcal/mol)_298.15K_1.00E+00atm> (1)
7.01058285038803

>  <r_j_Free_Energy_(kcal/mol)_298.15K_1.00E+00atm> (1)
-22.3963087829823

>  <r_j_Internal_Energy_(kcal/mol)_298.15K_1.00E+00atm> (1)
6.41809726156076

>  <r_j_Heat_Capacity_(cal/mol/K)_298.15K_1.00E+00atm> (1)
41.8117897497822

>  <r_j_ln(Q)_298.15K_1.00E+00atm> (1)
37.800596681705

>  <r_j_Total_Internal_Energy_(au)_298.15K_1.00E+00atm> (1)
-502.574566591769

>  <r_j_Total_Enthalpy_(au)_298.15K_1.00E+00atm> (1)
-502.573622405877

>  <r_j_Total_Free_Energy_(au)_298.15K_1.00E+00atm> (1)
-502.620485270964

>  <r_lp_tautomer_probability> (1)
1

>  <r_epik_Ionization_Penalty> (1)
  0.0000

>  <r_epik_Ionization_Penalty_Charging> (1)
  0.0000

>  <r_epik_Ionization_Penalty_Neutral> (1)
  0.0000

>  <r_epik_State_Penalty> (1)
  0.0000

>  <r_epik_Charging_Adjusted_Penalty> (1)
0

>  <i_epik_Tot_Q> (1)
0

>  <i_epik_Tot_abs_Q> (1)
0

>  <s_lp_Force_Field> (1)
S-OPLS

>  <r_lp_Energy> (1)
26.4728

>  <b_lp_Chiralities_Consistent> (1)
1

$$$$
