12572015_Nonadecanedioic acid
                    3D
 Schrodinger Suite 2021-3.
 57 56  0  0  1  0            999 V2000
    0.1173    0.0569    0.2803 C   0  0  0  0  0  0
    1.6468    0.1368    0.1956 C   0  0  0  0  0  0
    2.3231   -1.2384    0.2842 C   0  0  0  0  0  0
    3.8599   -1.2131    0.2599 C   0  0  0  0  0  0
    4.4690   -0.6899   -1.0496 C   0  0  0  0  0  0
    6.0032   -0.7871   -1.1162 C   0  0  0  0  0  0
    6.5623   -2.2160   -1.1906 C   0  0  0  0  0  0
    8.0848   -2.2697   -1.3723 C   0  0  0  0  0  0
    8.6635   -3.6810   -1.4760 C   0  0  0  0  0  0
   10.1840   -3.7246   -1.9024 C   0  0  0  0  0  0
   10.7989   -4.7634   -1.5583 O   0  0  0  0  0  0
   10.5898   -2.7327   -2.5637 O   0  5  0  0  0  0
   -0.5783    1.4215    0.1792 C   0  0  0  0  0  0
   -2.1146    1.3500    0.1584 C   0  0  0  0  0  0
   -2.7540    0.8539    1.4626 C   0  0  0  0  0  0
   -4.2851    0.7759    1.4042 C   0  0  0  0  0  0
   -4.9259    0.2868    2.7093 C   0  0  0  0  0  0
   -6.4469    0.1167    2.6288 C   0  0  0  0  0  0
   -7.0778   -0.3721    3.9381 C   0  0  0  0  0  0
   -8.5934   -0.5674    3.8347 C   0  0  0  0  0  0
   -9.4322    0.7579    3.6576 C   0  0  0  0  0  0
  -10.6573    0.5719    3.4633 O   0  0  0  0  0  0
   -8.7896    1.8394    3.7471 O   0  5  0  0  0  0
   -0.2544   -0.5945   -0.5245 H   0  0  0  0  0  0
   -0.1637   -0.4362    1.2199 H   0  0  0  0  0  0
    1.9289    0.6323   -0.7426 H   0  0  0  0  0  0
    2.0255    0.7800    1.0039 H   0  0  0  0  0  0
    1.9879   -1.7336    1.2067 H   0  0  0  0  0  0
    1.9621   -1.8675   -0.5429 H   0  0  0  0  0  0
    4.2287   -0.6016    1.0969 H   0  0  0  0  0  0
    4.2262   -2.2297    0.4446 H   0  0  0  0  0  0
    4.0370   -1.2504   -1.8925 H   0  0  0  0  0  0
    4.1680    0.3564   -1.1948 H   0  0  0  0  0  0
    6.3544   -0.2338   -1.9980 H   0  0  0  0  0  0
    6.4375   -0.2701   -0.2473 H   0  0  0  0  0  0
    6.2831   -2.7757   -0.2863 H   0  0  0  0  0  0
    6.0784   -2.7427   -2.0281 H   0  0  0  0  0  0
    8.3887   -1.7289   -2.2765 H   0  0  0  0  0  0
    8.5672   -1.7380   -0.5381 H   0  0  0  0  0  0
    8.5451   -4.2342   -0.5347 H   0  0  0  0  0  0
    8.0977   -4.2485   -2.2337 H   0  0  0  0  0  0
   -0.2539    2.0568    1.0166 H   0  0  0  0  0  0
   -0.2306    1.9248   -0.7343 H   0  0  0  0  0  0
   -2.5169    2.3460   -0.0731 H   0  0  0  0  0  0
   -2.4311    0.6981   -0.6694 H   0  0  0  0  0  0
   -2.3607   -0.1396    1.7161 H   0  0  0  0  0  0
   -2.4513    1.5172    2.2866 H   0  0  0  0  0  0
   -4.6962    1.7621    1.1456 H   0  0  0  0  0  0
   -4.5773    0.1040    0.5833 H   0  0  0  0  0  0
   -4.4624   -0.6705    2.9970 H   0  0  0  0  0  0
   -4.6815    0.9928    3.5166 H   0  0  0  0  0  0
   -6.9304    1.0676    2.3805 H   0  0  0  0  0  0
   -6.6846   -0.5928    1.8197 H   0  0  0  0  0  0
   -6.5821   -1.3060    4.2555 H   0  0  0  0  0  0
   -6.8880    0.3837    4.7104 H   0  0  0  0  0  0
   -8.8429   -1.2410    3.0016 H   0  0  0  0  0  0
   -8.9718   -1.0670    4.7386 H   0  0  0  0  0  0
  1  2  1  0  0  0
  1 13  1  0  0  0
  1 24  1  0  0  0
  1 25  1  0  0  0
  2  3  1  0  0  0
  2 26  1  0  0  0
  2 27  1  0  0  0
  3  4  1  0  0  0
  3 28  1  0  0  0
  3 29  1  0  0  0
  4  5  1  0  0  0
  4 30  1  0  0  0
  4 31  1  0  0  0
  5  6  1  0  0  0
  5 32  1  0  0  0
  5 33  1  0  0  0
  6  7  1  0  0  0
  6 34  1  0  0  0
  6 35  1  0  0  0
  7  8  1  0  0  0
  7 36  1  0  0  0
  7 37  1  0  0  0
  8  9  1  0  0  0
  8 38  1  0  0  0
  8 39  1  0  0  0
  9 10  1  0  0  0
  9 40  1  0  0  0
  9 41  1  0  0  0
 10 11  2  0  0  0
 10 12  1  0  0  0
 13 14  1  0  0  0
 13 42  1  0  0  0
 13 43  1  0  0  0
 14 15  1  0  0  0
 14 44  1  0  0  0
 14 45  1  0  0  0
 15 16  1  0  0  0
 15 46  1  0  0  0
 15 47  1  0  0  0
 16 17  1  0  0  0
 16 48  1  0  0  0
 16 49  1  0  0  0
 17 18  1  0  0  0
 17 50  1  0  0  0
 17 51  1  0  0  0
 18 19  1  0  0  0
 18 52  1  0  0  0
 18 53  1  0  0  0
 19 20  1  0  0  0
 19 54  1  0  0  0
 19 55  1  0  0  0
 20 21  1  0  0  0
 20 56  1  0  0  0
 20 57  1  0  0  0
 21 22  2  0  0  0
 21 23  1  0  0  0
M  END
>  <i_m_Spin_multiplicity> (1)
1

>  <s_j_Task> (1)
Single Point

>  <s_j_QM_Method> (1)
DFT(b3lyp-d3)

>  <s_j_QM_Basis> (1)
cc-pvtz(-f)

>  <i_j_Number_of_canonical_orbitals> (1)
829

>  <i_j_Geometry_convergence_category> (1)
0

>  <r_j_Gas_Phase_Energy> (1)
-1045.92412316247

>  <r_j_Final_Energy> (1)
-1045.92412316247

>  <r_j_HOMO> (1)
-0.0127824108276231

>  <r_j_LUMO> (1)
0.141020250413757

>  <r_j_Polarizability> (1)
255.454723268492

>  <r_j_QM_Dipole_(debye)> (1)
5.47472084810819

>  <r_j_QM_Dipole_X_(debye)> (1)
-1.76596687721473

>  <r_j_QM_Dipole_Y_(debye)> (1)
5.14555274808697

>  <r_j_QM_Dipole_Z_(debye)> (1)
-0.614179346726648

>  <r_j_Lowest_Frequency_(cm-1)> (1)
17.7686616640746

>  <r_j_Highest_Frequency_(cm-1)> (1)
3034.50331028841

>  <r_j_2nd_Lowest_Frequency_(cm-1)> (1)
33.7077091207695

>  <i_j_Num_Negative_Frequencies> (1)
0

>  <r_j_Zero_Point_Energy_(kcal/mol)> (1)
317.118828544181

>  <r_j_Entropy_(cal/mol/K)_298.15K_1.00E+00atm> (1)
169.88412696094

>  <r_j_Enthalpy_(kcal/mol)_298.15K_1.00E+00atm> (1)
16.6158687788709

>  <r_j_Free_Energy_(kcal/mol)_298.15K_1.00E+00atm> (1)
-34.0350836745334

>  <r_j_Internal_Energy_(kcal/mol)_298.15K_1.00E+00atm> (1)
16.0233831900436

>  <r_j_Heat_Capacity_(cal/mol/K)_298.15K_1.00E+00atm> (1)
96.6721774365424

>  <r_j_ln(Q)_298.15K_1.00E+00atm> (1)
57.4445764021031

>  <r_j_Total_Internal_Energy_(au)_298.15K_1.00E+00atm> (1)
-1045.39322725147

>  <r_j_Total_Enthalpy_(au)_298.15K_1.00E+00atm> (1)
-1045.39228306558

>  <r_j_Total_Free_Energy_(au)_298.15K_1.00E+00atm> (1)
-1045.47300049675

>  <r_epik_Ionization_Penalty> (1)
  0.0097

>  <r_epik_Ionization_Penalty_Charging> (1)
  0.0097

>  <r_epik_Ionization_Penalty_Neutral> (1)
  0.0000

>  <r_epik_State_Penalty> (1)
  0.0074

>  <r_epik_Charging_Adjusted_Penalty> (1)
0.0170681

>  <i_epik_Tot_Q> (1)
-2

>  <i_epik_Tot_abs_Q> (1)
2

>  <s_lp_Force_Field> (1)
S-OPLS

>  <r_lp_Energy> (1)
13.4684

>  <b_lp_Chiralities_Consistent> (1)
1

$$$$
