12592_n-Tetracosane
                    3D
 Schrodinger Suite 2021-3.
 74 73  0  0  1  0            999 V2000
  -10.7005    9.7540    0.8157 C   0  0  0  0  0  0
  -10.2110    8.3041    0.7532 C   0  0  0  0  0  0
   -8.6867    8.1874    0.6338 C   0  0  0  0  0  0
   -8.1930    6.7378    0.5704 C   0  0  0  0  0  0
   -6.6698    6.6096    0.4534 C   0  0  0  0  0  0
   -6.1910    5.1547    0.3913 C   0  0  0  0  0  0
   -4.6691    5.0091    0.2795 C   0  0  0  0  0  0
   -4.2070    3.5485    0.2212 C   0  0  0  0  0  0
   -2.6863    3.3854    0.1177 C   0  0  0  0  0  0
   -2.2395    1.9198    0.0658 C   0  0  0  0  0  0
   -0.7198    1.7419   -0.0265 C   0  0  0  0  0  0
   -0.2848    0.2721   -0.0687 C   0  0  0  0  0  0
    1.2367    0.0918   -0.1536 C   0  0  0  0  0  0
    1.7082   -1.3699   -0.0998 C   0  0  0  0  0  0
    1.2826   -2.2224   -1.3031 C   0  0  0  0  0  0
    1.8241   -3.6568   -1.2369 C   0  0  0  0  0  0
    1.5115   -4.5139   -2.4727 C   0  0  0  0  0  0
    0.0188   -4.7866   -2.7033 C   0  0  0  0  0  0
   -0.2402   -5.7195   -3.8922 C   0  0  0  0  0  0
   -1.7264   -5.9973   -4.1458 C   0  0  0  0  0  0
   -1.9704   -6.9365   -5.3327 C   0  0  0  0  0  0
   -3.4527   -7.2227   -5.5979 C   0  0  0  0  0  0
   -3.6855   -8.1654   -6.7848 C   0  0  0  0  0  0
   -5.1677   -8.4489   -7.0466 C   0  0  0  0  0  0
  -11.7909    9.8080    0.9011 H   0  0  0  0  0  0
  -10.4085   10.3077   -0.0841 H   0  0  0  0  0  0
  -10.2719   10.2778    1.6779 H   0  0  0  0  0  0
  -10.5449    7.7640    1.6498 H   0  0  0  0  0  0
  -10.6797    7.7938   -0.0994 H   0  0  0  0  0  0
   -8.3502    8.7274   -0.2630 H   0  0  0  0  0  0
   -8.2156    8.6965    1.4872 H   0  0  0  0  0  0
   -8.5337    6.1995    1.4666 H   0  0  0  0  0  0
   -8.6657    6.2310   -0.2832 H   0  0  0  0  0  0
   -6.3262    7.1454   -0.4430 H   0  0  0  0  0  0
   -6.1949    7.1135    1.3075 H   0  0  0  0  0  0
   -6.5406    4.6202    1.2864 H   0  0  0  0  0  0
   -6.6668    4.6530   -0.4637 H   0  0  0  0  0  0
   -4.3163    5.5397   -0.6165 H   0  0  0  0  0  0
   -4.1914    5.5087    1.1345 H   0  0  0  0  0  0
   -4.5674    3.0193    1.1152 H   0  0  0  0  0  0
   -4.6843    3.0514   -0.6356 H   0  0  0  0  0  0
   -2.3228    3.9098   -0.7777 H   0  0  0  0  0  0
   -2.2078    3.8818    0.9741 H   0  0  0  0  0  0
   -2.6114    1.3964    0.9584 H   0  0  0  0  0  0
   -2.7158    1.4256   -0.7933 H   0  0  0  0  0  0
   -0.3456    2.2586   -0.9219 H   0  0  0  0  0  0
   -0.2426    2.2387    0.8305 H   0  0  0  0  0  0
   -0.6592   -0.2430    0.8280 H   0  0  0  0  0  0
   -0.7692   -0.2177   -0.9235 H   0  0  0  0  0  0
    1.6067    0.5595   -1.0774 H   0  0  0  0  0  0
    1.7029    0.6453    0.6729 H   0  0  0  0  0  0
    2.8041   -1.3877   -0.0260 H   0  0  0  0  0  0
    1.3356   -1.8365    0.8237 H   0  0  0  0  0  0
    0.1888   -2.2459   -1.3703 H   0  0  0  0  0  0
    1.6357   -1.7437   -2.2285 H   0  0  0  0  0  0
    2.9134   -3.6179   -1.0993 H   0  0  0  0  0  0
    1.4236   -4.1525   -0.3407 H   0  0  0  0  0  0
    1.9310   -4.0279   -3.3654 H   0  0  0  0  0  0
    2.0345   -5.4754   -2.3785 H   0  0  0  0  0  0
   -0.4145   -5.2260   -1.7930 H   0  0  0  0  0  0
   -0.5146   -3.8412   -2.8677 H   0  0  0  0  0  0
    0.2063   -5.2842   -4.7979 H   0  0  0  0  0  0
    0.2834   -6.6720   -3.7266 H   0  0  0  0  0  0
   -2.1760   -6.4298   -3.2404 H   0  0  0  0  0  0
   -2.2508   -5.0467   -4.3192 H   0  0  0  0  0  0
   -1.5176   -6.5035   -6.2363 H   0  0  0  0  0  0
   -1.4439   -7.8858   -5.1573 H   0  0  0  0  0  0
   -3.9080   -7.6558   -4.6956 H   0  0  0  0  0  0
   -3.9811   -6.2752   -5.7776 H   0  0  0  0  0  0
   -3.2292   -7.7314   -7.6851 H   0  0  0  0  0  0
   -3.1565   -9.1110   -6.6034 H   0  0  0  0  0  0
   -5.3048   -9.1241   -7.8978 H   0  0  0  0  0  0
   -5.7138   -7.5235   -7.2636 H   0  0  0  0  0  0
   -5.6406   -8.9128   -6.1733 H   0  0  0  0  0  0
  1  2  1  0  0  0
  1 25  1  0  0  0
  1 26  1  0  0  0
  1 27  1  0  0  0
  2  3  1  0  0  0
  2 28  1  0  0  0
  2 29  1  0  0  0
  3  4  1  0  0  0
  3 30  1  0  0  0
  3 31  1  0  0  0
  4  5  1  0  0  0
  4 32  1  0  0  0
  4 33  1  0  0  0
  5  6  1  0  0  0
  5 34  1  0  0  0
  5 35  1  0  0  0
  6  7  1  0  0  0
  6 36  1  0  0  0
  6 37  1  0  0  0
  7  8  1  0  0  0
  7 38  1  0  0  0
  7 39  1  0  0  0
  8  9  1  0  0  0
  8 40  1  0  0  0
  8 41  1  0  0  0
  9 10  1  0  0  0
  9 42  1  0  0  0
  9 43  1  0  0  0
 10 11  1  0  0  0
 10 44  1  0  0  0
 10 45  1  0  0  0
 11 12  1  0  0  0
 11 46  1  0  0  0
 11 47  1  0  0  0
 12 13  1  0  0  0
 12 48  1  0  0  0
 12 49  1  0  0  0
 13 14  1  0  0  0
 13 50  1  0  0  0
 13 51  1  0  0  0
 14 15  1  0  0  0
 14 52  1  0  0  0
 14 53  1  0  0  0
 15 16  1  0  0  0
 15 54  1  0  0  0
 15 55  1  0  0  0
 16 17  1  0  0  0
 16 56  1  0  0  0
 16 57  1  0  0  0
 17 18  1  0  0  0
 17 58  1  0  0  0
 17 59  1  0  0  0
 18 19  1  0  0  0
 18 60  1  0  0  0
 18 61  1  0  0  0
 19 20  1  0  0  0
 19 62  1  0  0  0
 19 63  1  0  0  0
 20 21  1  0  0  0
 20 64  1  0  0  0
 20 65  1  0  0  0
 21 22  1  0  0  0
 21 66  1  0  0  0
 21 67  1  0  0  0
 22 23  1  0  0  0
 22 68  1  0  0  0
 22 69  1  0  0  0
 23 24  1  0  0  0
 23 70  1  0  0  0
 23 71  1  0  0  0
 24 72  1  0  0  0
 24 73  1  0  0  0
 24 74  1  0  0  0
M  END
> <i_m_Spin_multiplicity>
1

> <s_j_Task>
Single Point

> <s_j_QM_Method>
DFT(b3lyp-d3)

> <s_j_QM_Basis>
cc-pvtz(-f)

> <i_j_Number_of_canonical_orbitals>
994

> <i_j_Geometry_convergence_category>
3

> <r_j_Gas_Phase_Energy>
-945.110525729462

> <r_j_Final_Energy>
-945.110525729462

> <r_j_HOMO>
-0.264359560040252

> <r_j_LUMO>
0.0229599052458107

> <r_j_Polarizability>
300.161677642035

> <r_j_QM_Dipole_(debye)>
0.0868258884529517

> <r_j_QM_Dipole_X_(debye)>
0.0674107041757212

> <r_j_QM_Dipole_Y_(debye)>
-0.0545550100608949

> <r_j_QM_Dipole_Z_(debye)>
0.00427583271813602

> <r_j_Lowest_Frequency_(cm-1)>
22.4658426074877

> <r_j_Highest_Frequency_(cm-1)>
3045.5094006525

> <r_j_2nd_Lowest_Frequency_(cm-1)>
31.0389484541298

> <i_j_Num_Negative_Frequencies>
0

> <r_j_Zero_Point_Energy_(kcal/mol)>
440.139501968002

> <r_j_Entropy_(cal/mol/K)_298.15K_1.00E+00atm>
186.816747468978

> <r_j_Enthalpy_(kcal/mol)_298.15K_1.00E+00atm>
19.2427335898841

> <r_j_Free_Energy_(kcal/mol)_298.15K_1.00E+00atm>
-36.4566796679917

> <r_j_Internal_Energy_(kcal/mol)_298.15K_1.00E+00atm>
18.6502480010568

> <r_j_Heat_Capacity_(cal/mol/K)_298.15K_1.00E+00atm>
114.016860665312

> <r_j_ln(Q)_298.15K_1.00E+00atm>
61.5317576586994

> <r_j_Total_Internal_Energy_(au)_298.15K_1.00E+00atm>
-944.379397719602

> <r_j_Total_Enthalpy_(au)_298.15K_1.00E+00atm>
-944.37845353371

> <r_j_Total_Free_Energy_(au)_298.15K_1.00E+00atm>
-944.467216199329

> <r_lp_tautomer_probability>
1

> <r_epik_Ionization_Penalty>
  0.0000

> <r_epik_Ionization_Penalty_Charging>
  0.0000

> <r_epik_Ionization_Penalty_Neutral>
  0.0000

> <r_epik_State_Penalty>
  0.0000

> <r_epik_Charging_Adjusted_Penalty>
0

> <i_epik_Tot_Q>
0

> <i_epik_Tot_abs_Q>
0

> <s_lp_Force_Field>
S-OPLS

> <r_lp_Energy>
12.456354

> <b_lp_Chiralities_Consistent>
1

$$$$
