12591_Nonadecanoic acid
                    3D
 Schrodinger Suite 2021-3.
 58 57  0  0  1  0            999 V2000
   -8.5579    4.0765   -1.2087 C   0  0  0  0  0  0
   -7.0381    3.8876   -1.2406 C   0  0  0  0  0  0
   -6.3334    4.5334   -0.0395 C   0  0  0  0  0  0
   -4.7999    4.4419   -0.0764 C   0  0  0  0  0  0
   -4.2445    3.0148    0.0192 C   0  0  0  0  0  0
   -2.7124    2.9614    0.0345 C   0  0  0  0  0  0
   -2.1553    1.5354    0.1095 C   0  0  0  0  0  0
   -0.6239    1.4734    0.0942 C   0  0  0  0  0  0
   -0.0730    0.0440    0.1468 C   0  0  0  0  0  0
    1.4576   -0.0263    0.1038 C   0  0  0  0  0  0
    2.0010   -1.4593    0.1283 C   0  0  0  0  0  0
    3.5303   -1.5397    0.0607 C   0  0  0  0  0  0
    4.0619   -2.9773    0.0487 C   0  0  0  0  0  0
    5.5909   -3.0634   -0.0431 C   0  0  0  0  0  0
    6.1440   -4.4978   -0.0369 C   0  0  0  0  0  0
    5.7410   -5.3496   -1.2493 C   0  0  0  0  0  0
    6.3999   -6.7339   -1.2727 C   0  0  0  0  0  0
    6.0115   -7.5984   -2.4717 C   0  0  0  0  0  0
    6.8698   -8.9172   -2.6141 C   0  0  0  0  0  0
    6.3086   -9.8460   -3.2436 O   0  0  0  0  0  0
    8.0223   -8.8666   -2.1100 O   0  5  0  0  0  0
   -9.0408    3.6077   -2.0726 H   0  0  0  0  0  0
   -8.8240    5.1401   -1.2131 H   0  0  0  0  0  0
   -8.9903    3.6332   -0.3041 H   0  0  0  0  0  0
   -6.8087    2.8157   -1.2753 H   0  0  0  0  0  0
   -6.6324    4.3159   -2.1678 H   0  0  0  0  0  0
   -6.6267    5.5912    0.0127 H   0  0  0  0  0  0
   -6.7033    4.0708    0.8873 H   0  0  0  0  0  0
   -4.4321    4.9114   -1.0004 H   0  0  0  0  0  0
   -4.3872    5.0372    0.7496 H   0  0  0  0  0  0
   -4.6361    2.5341    0.9277 H   0  0  0  0  0  0
   -4.6105    2.4136   -0.8232 H   0  0  0  0  0  0
   -2.3245    3.4549   -0.8683 H   0  0  0  0  0  0
   -2.3341    3.5471    0.8848 H   0  0  0  0  0  0
   -2.5312    1.0448    1.0189 H   0  0  0  0  0  0
   -2.5486    0.9489   -0.7334 H   0  0  0  0  0  0
   -0.2506    1.9724   -0.8119 H   0  0  0  0  0  0
   -0.2263    2.0502    0.9419 H   0  0  0  0  0  0
   -0.4354   -0.4528    1.0583 H   0  0  0  0  0  0
   -0.4844   -0.5327   -0.6941 H   0  0  0  0  0  0
    1.8177    0.4820   -0.8025 H   0  0  0  0  0  0
    1.8732    0.5379    0.9514 H   0  0  0  0  0  0
    1.6492   -1.9669    1.0381 H   0  0  0  0  0  0
    1.5732   -2.0218   -0.7139 H   0  0  0  0  0  0
    3.8796   -1.0174   -0.8421 H   0  0  0  0  0  0
    3.9627   -0.9927    0.9117 H   0  0  0  0  0  0
    3.7239   -3.4993    0.9562 H   0  0  0  0  0  0
    3.6120   -3.5162   -0.7941 H   0  0  0  0  0  0
    5.9221   -2.5539   -0.9604 H   0  0  0  0  0  0
    6.0265   -2.4963    0.7934 H   0  0  0  0  0  0
    7.2406   -4.4546    0.0097 H   0  0  0  0  0  0
    5.8248   -5.0049    0.8860 H   0  0  0  0  0  0
    4.6481   -5.4680   -1.2752 H   0  0  0  0  0  0
    6.0042   -4.8058   -2.1704 H   0  0  0  0  0  0
    7.4928   -6.6473   -1.2768 H   0  0  0  0  0  0
    6.1519   -7.2674   -0.3426 H   0  0  0  0  0  0
    4.9474   -7.8689   -2.4435 H   0  0  0  0  0  0
    6.1526   -7.0159   -3.3976 H   0  0  0  0  0  0
  1  2  1  0  0  0
  1 22  1  0  0  0
  1 23  1  0  0  0
  1 24  1  0  0  0
  2  3  1  0  0  0
  2 25  1  0  0  0
  2 26  1  0  0  0
  3  4  1  0  0  0
  3 27  1  0  0  0
  3 28  1  0  0  0
  4  5  1  0  0  0
  4 29  1  0  0  0
  4 30  1  0  0  0
  5  6  1  0  0  0
  5 31  1  0  0  0
  5 32  1  0  0  0
  6  7  1  0  0  0
  6 33  1  0  0  0
  6 34  1  0  0  0
  7  8  1  0  0  0
  7 35  1  0  0  0
  7 36  1  0  0  0
  8  9  1  0  0  0
  8 37  1  0  0  0
  8 38  1  0  0  0
  9 10  1  0  0  0
  9 39  1  0  0  0
  9 40  1  0  0  0
 10 11  1  0  0  0
 10 41  1  0  0  0
 10 42  1  0  0  0
 11 12  1  0  0  0
 11 43  1  0  0  0
 11 44  1  0  0  0
 12 13  1  0  0  0
 12 45  1  0  0  0
 12 46  1  0  0  0
 13 14  1  0  0  0
 13 47  1  0  0  0
 13 48  1  0  0  0
 14 15  1  0  0  0
 14 49  1  0  0  0
 14 50  1  0  0  0
 15 16  1  0  0  0
 15 51  1  0  0  0
 15 52  1  0  0  0
 16 17  1  0  0  0
 16 53  1  0  0  0
 16 54  1  0  0  0
 17 18  1  0  0  0
 17 55  1  0  0  0
 17 56  1  0  0  0
 18 19  1  0  0  0
 18 57  1  0  0  0
 18 58  1  0  0  0
 19 20  2  0  0  0
 19 21  1  0  0  0
M  END
>  <s_lp_Force_Field> (1)
S-OPLS

>  <r_lp_Energy> (1)
13.276172

>  <b_lp_Chiralities_Consistent> (1)
1

>  <r_epik_Ionization_Penalty> (1)
  0.0049

>  <r_epik_Ionization_Penalty_Charging> (1)
  0.0049

>  <r_epik_Ionization_Penalty_Neutral> (1)
  0.0000

>  <r_epik_State_Penalty> (1)
  0.0035

>  <r_epik_Charging_Adjusted_Penalty> (1)
0.00839777765143097

>  <i_epik_Tot_Q> (1)
-1

>  <i_epik_Tot_abs_Q> (1)
1

>  <i_m_Spin_multiplicity> (1)
1

>  <s_j_Task> (1)
Single Point

>  <s_j_QM_Method> (1)
DFT(b3lyp-d3)

>  <s_j_QM_Basis> (1)
6-31g**

>  <i_j_Number_of_canonical_orbitals> (1)
500

>  <i_j_Geometry_convergence_category> (1)
1

>  <r_j_Gas_Phase_Energy> (1)
-896.936453510267

>  <r_j_Final_Energy> (1)
-896.936453510267

>  <r_j_HOMO> (1)
-0.00474356601814763

>  <r_j_LUMO> (1)
0.123904374829489

>  <r_j_Polarizability> (1)
217.748700390637

>  <r_j_QM_Dipole_(debye)> (1)
44.4556949344222

>  <r_j_QM_Dipole_X_(debye)> (1)
-27.131771904762

>  <r_j_QM_Dipole_Y_(debye)> (1)
34.203714817931

>  <r_j_QM_Dipole_Z_(debye)> (1)
8.38341565616491

>  <r_j_Lowest_Frequency_(cm-1)> (1)
-10.0367582188954

>  <r_j_Highest_Frequency_(cm-1)> (1)
3105.84717724381

>  <r_j_2nd_Lowest_Frequency_(cm-1)> (1)
19.1459931205641

>  <i_j_Num_Negative_Frequencies> (1)
1

>  <r_j_Zero_Point_Energy_(kcal/mol)> (1)
336.152751477393

>  <r_j_Entropy_(cal/mol/K)_298.15K_1.00E+00atm> (1)
167.777280406367

>  <r_j_Enthalpy_(kcal/mol)_298.15K_1.00E+00atm> (1)
16.1075723478908

>  <r_j_Free_Energy_(kcal/mol)_298.15K_1.00E+00atm> (1)
-33.9152238052675

>  <r_j_Internal_Energy_(kcal/mol)_298.15K_1.00E+00atm> (1)
15.5150867590635

>  <r_j_Heat_Capacity_(cal/mol/K)_298.15K_1.00E+00atm> (1)
92.2599585924853

>  <r_j_ln(Q)_298.15K_1.00E+00atm> (1)
57.2422763436271

>  <r_j_Total_Internal_Energy_(au)_298.15K_1.00E+00atm> (1)
-896.376035134052

>  <r_j_Total_Enthalpy_(au)_298.15K_1.00E+00atm> (1)
-896.37509094816

>  <r_j_Total_Free_Energy_(au)_298.15K_1.00E+00atm> (1)
-896.454807348541

$$$$
