12699_N-Methyl-N-nitrosourea
                    3D
 Schrodinger Suite 2021-3.
 12 11  0  0  1  0            999 V2000
    0.0356   -0.0246    0.0000 C   0  0  0  0  0  0
    1.4944   -0.0239    0.0001 N   0  0  0  0  0  0
    2.2388    1.2029    0.0001 C   0  0  0  0  0  0
    1.6597    2.2739    0.0001 O   0  0  0  0  0  0
    3.5834    1.0406    0.0002 N   0  0  0  0  0  0
    2.1883   -1.1829    0.0001 N   0  0  0  0  0  0
    1.4938   -2.1870   -0.0001 O   0  0  0  0  0  0
   -0.2915    1.0121    0.0000 H   0  0  0  0  0  0
   -0.3283   -0.5509    0.8859 H   0  0  0  0  0  0
   -0.3282   -0.5509   -0.8859 H   0  0  0  0  0  0
    4.0034    0.1247    0.0002 H   0  0  0  0  0  0
    4.1420    1.8774    0.0002 H   0  0  0  0  0  0
  1  2  1  0  0  0
  1  8  1  0  0  0
  1  9  1  0  0  0
  1 10  1  0  0  0
  2  3  1  0  0  0
  2  6  1  0  0  0
  3  4  2  0  0  0
  3  5  1  0  0  0
  5 11  1  0  0  0
  5 12  1  0  0  0
  6  7  2  0  0  0
M  END
>  <i_m_Spin_multiplicity> (1)
1

>  <s_j_Task> (1)
Single Point

>  <s_j_QM_Method> (1)
DFT(b3lyp-d3)

>  <s_j_QM_Basis> (1)
cc-pvtz(-f)

>  <i_j_Number_of_canonical_orbitals> (1)
206

>  <i_j_Geometry_convergence_category> (1)
0

>  <r_j_Gas_Phase_Energy> (1)
-394.021224928053

>  <r_j_Final_Energy> (1)
-394.021224928053

>  <r_j_HOMO> (1)
-0.263415572704152

>  <r_j_LUMO> (1)
-0.0813708264278801

>  <r_j_Polarizability> (1)
54.5764454198121

>  <r_j_QM_Dipole_(debye)> (1)
1.33619621166128

>  <r_j_QM_Dipole_X_(debye)> (1)
1.2730446225626

>  <r_j_QM_Dipole_Y_(debye)> (1)
0.405928187251365

>  <r_j_QM_Dipole_Z_(debye)> (1)
0.000108707075596702

>  <r_j_Lowest_Frequency_(cm-1)> (1)
92.056415381156

>  <r_j_Highest_Frequency_(cm-1)> (1)
3695.64978813952

>  <r_j_2nd_Lowest_Frequency_(cm-1)> (1)
190.243108327293

>  <i_j_Num_Negative_Frequencies> (1)
0

>  <r_j_Zero_Point_Energy_(kcal/mol)> (1)
55.2575969505606

>  <r_j_Entropy_(cal/mol/K)_298.15K_1.00E+00atm> (1)
82.7271597622146

>  <r_j_Enthalpy_(kcal/mol)_298.15K_1.00E+00atm> (1)
5.1347842190931

>  <r_j_Free_Energy_(kcal/mol)_298.15K_1.00E+00atm> (1)
-19.5303184640112

>  <r_j_Internal_Energy_(kcal/mol)_298.15K_1.00E+00atm> (1)
4.54229863026583

>  <r_j_Heat_Capacity_(cal/mol/K)_298.15K_1.00E+00atm> (1)
25.4787928746882

>  <r_j_ln(Q)_298.15K_1.00E+00atm> (1)
32.9633645649815

>  <r_j_Total_Internal_Energy_(au)_298.15K_1.00E+00atm> (1)
-393.925927727867

>  <r_j_Total_Enthalpy_(au)_298.15K_1.00E+00atm> (1)
-393.924983541975

>  <r_j_Total_Free_Energy_(au)_298.15K_1.00E+00atm> (1)
-393.964289885325

>  <r_lp_tautomer_probability> (1)
1

>  <r_epik_Ionization_Penalty> (1)
  0.0000

>  <r_epik_Ionization_Penalty_Charging> (1)
  0.0000

>  <r_epik_Ionization_Penalty_Neutral> (1)
  0.0000

>  <r_epik_State_Penalty> (1)
  0.0000

>  <r_epik_Charging_Adjusted_Penalty> (1)
0

>  <i_epik_Tot_Q> (1)
0

>  <i_epik_Tot_abs_Q> (1)
0

>  <s_lp_Force_Field> (1)
S-OPLS

>  <r_lp_Energy> (1)
11.0818

>  <b_lp_Chiralities_Consistent> (1)
1

$$$$
