12732_Hexyne
                    3D
 Schrodinger Suite 2021-3.
 16 15  0  0  1  0            999 V2000
   -0.5745    1.4511    0.0000 C   0  0  0  0  0  0
   -0.0071    0.0291    0.0001 C   0  0  0  0  0  0
    1.5246    0.0021    0.0001 C   0  0  0  0  0  0
    2.0862   -1.4348    0.0001 C   0  0  0  0  0  0
    3.5483   -1.4781    0.0005 C   0  0  0  0  0  0
    4.7562   -1.4838    0.0006 C   0  0  0  0  0  0
   -1.6691    1.4458    0.0001 H   0  0  0  0  0  0
   -0.2428    2.0075   -0.8839 H   0  0  0  0  0  0
   -0.2427    2.0076    0.8839 H   0  0  0  0  0  0
   -0.3790   -0.5168    0.8779 H   0  0  0  0  0  0
   -0.3790   -0.5169   -0.8777 H   0  0  0  0  0  0
    1.9086    0.5359   -0.8780 H   0  0  0  0  0  0
    1.9085    0.5359    0.8782 H   0  0  0  0  0  0
    1.7065   -1.9755    0.8777 H   0  0  0  0  0  0
    1.7070   -1.9753   -0.8778 H   0  0  0  0  0  0
    5.8211   -1.4929    0.0011 H   0  0  0  0  0  0
  1  2  1  0  0  0
  1  7  1  0  0  0
  1  8  1  0  0  0
  1  9  1  0  0  0
  2  3  1  0  0  0
  2 10  1  0  0  0
  2 11  1  0  0  0
  3  4  1  0  0  0
  3 12  1  0  0  0
  3 13  1  0  0  0
  4  5  1  0  0  0
  4 14  1  0  0  0
  4 15  1  0  0  0
  5  6  3  0  0  0
  6 16  1  0  0  0
M  END
>  <i_m_Spin_multiplicity> (1)
1

>  <s_j_Task> (1)
Single Point

>  <s_j_QM_Method> (1)
DFT(b3lyp-d3)

>  <s_j_QM_Basis> (1)
cc-pvtz(-f)

>  <i_j_Number_of_canonical_orbitals> (1)
226

>  <i_j_Geometry_convergence_category> (1)
3

>  <r_j_Gas_Phase_Energy> (1)
-234.688678931336

>  <r_j_Final_Energy> (1)
-234.688678931336

>  <r_j_HOMO> (1)
-0.276186805534836

>  <r_j_LUMO> (1)
0.0220325850108457

>  <r_j_Polarizability> (1)
70.3826303024854

>  <r_j_QM_Dipole_(debye)> (1)
0.942992907437678

>  <r_j_QM_Dipole_X_(debye)> (1)
-0.920001749984189

>  <r_j_QM_Dipole_Y_(debye)> (1)
0.206959879388706

>  <r_j_QM_Dipole_Z_(debye)> (1)
0.00010875296245307

>  <r_j_Lowest_Frequency_(cm-1)> (1)
137.297421381856

>  <r_j_Highest_Frequency_(cm-1)> (1)
3424.36824178827

>  <r_j_2nd_Lowest_Frequency_(cm-1)> (1)
153.491175489411

>  <i_j_Num_Negative_Frequencies> (1)
0

>  <r_j_Zero_Point_Energy_(kcal/mol)> (1)
88.6988349290478

>  <r_j_Entropy_(cal/mol/K)_298.15K_1.00E+00atm> (1)
81.4909899324727

>  <r_j_Enthalpy_(kcal/mol)_298.15K_1.00E+00atm> (1)
5.09819246046837

>  <r_j_Free_Energy_(kcal/mol)_298.15K_1.00E+00atm> (1)
-19.1983461878984

>  <r_j_Internal_Energy_(kcal/mol)_298.15K_1.00E+00atm> (1)
4.5057068716411

>  <r_j_Heat_Capacity_(cal/mol/K)_298.15K_1.00E+00atm> (1)
26.0365134917221

>  <r_j_ln(Q)_298.15K_1.00E+00atm> (1)
32.4030601755197

>  <r_j_Total_Internal_Energy_(au)_298.15K_1.00E+00atm> (1)
-234.540148038566

>  <r_j_Total_Enthalpy_(au)_298.15K_1.00E+00atm> (1)
-234.539203852674

>  <r_j_Total_Free_Energy_(au)_298.15K_1.00E+00atm> (1)
-234.577922851844

>  <r_lp_tautomer_probability> (1)
1

>  <r_epik_Ionization_Penalty> (1)
  0.0000

>  <r_epik_Ionization_Penalty_Charging> (1)
  0.0000

>  <r_epik_Ionization_Penalty_Neutral> (1)
  0.0000

>  <r_epik_State_Penalty> (1)
  0.0000

>  <r_epik_Charging_Adjusted_Penalty> (1)
0

>  <i_epik_Tot_Q> (1)
0

>  <i_epik_Tot_abs_Q> (1)
0

>  <s_lp_Force_Field> (1)
S-OPLS

>  <r_lp_Energy> (1)
0.940368

>  <b_lp_Chiralities_Consistent> (1)
1

$$$$
