12736_Dodecanedioic acid
                    3D
 Schrodinger Suite 2021-3.
 36 35  0  0  1  0            999 V2000
    0.1336    0.1278   -0.0008 C   0  0  0  0  0  0
    1.6603    0.0013    0.0853 C   0  0  0  0  0  0
    2.1703   -1.4443    0.0058 C   0  0  0  0  0  0
    3.6986   -1.5758    0.0657 C   0  0  0  0  0  0
    4.2093   -3.0201   -0.0324 C   0  0  0  0  0  0
    5.7322   -3.1526    0.0153 C   0  0  0  0  0  0
    6.2798   -4.6299   -0.0624 C   0  0  0  0  0  0
    7.5330   -4.7170   -0.1082 O   0  0  0  0  0  0
    5.4117   -5.5411   -0.0623 O   0  5  0  0  0  0
   -0.3857    1.5709    0.0566 C   0  0  0  0  0  0
   -1.9120    1.6783   -0.0737 C   0  0  0  0  0  0
   -2.4657    3.1123   -0.0738 C   0  0  0  0  0  0
   -2.2969    3.8923    1.2326 C   0  0  0  0  0  0
   -3.1974    5.1892    1.3278 C   0  0  0  0  0  0
   -2.7672    6.0748    2.1071 O   0  0  0  0  0  0
   -4.2557    5.1716    0.6448 O   0  5  0  0  0  0
   -0.2121   -0.3441   -0.9333 H   0  0  0  0  0  0
   -0.3236   -0.4541    0.8135 H   0  0  0  0  0  0
    2.1168    0.5902   -0.7243 H   0  0  0  0  0  0
    2.0106    0.4604    1.0216 H   0  0  0  0  0  0
    1.7244   -2.0321    0.8220 H   0  0  0  0  0  0
    1.8062   -1.9046   -0.9250 H   0  0  0  0  0  0
    4.1403   -0.9754   -0.7451 H   0  0  0  0  0  0
    4.0616   -1.1206    1.0003 H   0  0  0  0  0  0
    3.7809   -3.6301    0.7727 H   0  0  0  0  0  0
    3.8434   -3.4828   -0.9586 H   0  0  0  0  0  0
    6.1943   -2.5791   -0.8024 H   0  0  0  0  0  0
    6.1231   -2.7007    0.9405 H   0  0  0  0  0  0
   -0.0652    2.0396    0.9962 H   0  0  0  0  0  0
    0.0846    2.1577   -0.7472 H   0  0  0  0  0  0
   -2.2156    1.1645   -1.0006 H   0  0  0  0  0  0
   -2.3773    1.1132    0.7492 H   0  0  0  0  0  0
   -2.0028    3.6750   -0.8994 H   0  0  0  0  0  0
   -3.5401    3.1053   -0.2889 H   0  0  0  0  0  0
   -2.5809    3.2417    2.0771 H   0  0  0  0  0  0
   -1.2544    4.1821    1.4117 H   0  0  0  0  0  0
  1  2  1  0  0  0
  1 10  1  0  0  0
  1 17  1  0  0  0
  1 18  1  0  0  0
  2  3  1  0  0  0
  2 19  1  0  0  0
  2 20  1  0  0  0
  3  4  1  0  0  0
  3 21  1  0  0  0
  3 22  1  0  0  0
  4  5  1  0  0  0
  4 23  1  0  0  0
  4 24  1  0  0  0
  5  6  1  0  0  0
  5 25  1  0  0  0
  5 26  1  0  0  0
  6  7  1  0  0  0
  6 27  1  0  0  0
  6 28  1  0  0  0
  7  8  2  0  0  0
  7  9  1  0  0  0
 10 11  1  0  0  0
 10 29  1  0  0  0
 10 30  1  0  0  0
 11 12  1  0  0  0
 11 31  1  0  0  0
 11 32  1  0  0  0
 12 13  1  0  0  0
 12 33  1  0  0  0
 12 34  1  0  0  0
 13 14  1  0  0  0
 13 35  1  0  0  0
 13 36  1  0  0  0
 14 15  2  0  0  0
 14 16  1  0  0  0
M  END
>  <i_m_Spin_multiplicity> (1)
1

>  <s_j_Task> (1)
Single Point

>  <s_j_QM_Method> (1)
DFT(b3lyp-d3)

>  <s_j_QM_Basis> (1)
cc-pvtz(-f)

>  <i_j_Number_of_canonical_orbitals> (1)
545

>  <i_j_Geometry_convergence_category> (1)
1

>  <r_j_Gas_Phase_Energy> (1)
-770.604281514639

>  <r_j_Final_Energy> (1)
-770.604281514639

>  <r_j_HOMO> (1)
0.0311509355499641

>  <r_j_LUMO> (1)
0.186760016345142

>  <r_j_Polarizability> (1)
167.719455927951

>  <r_j_QM_Dipole_(debye)> (1)
3.35901259314407

>  <r_j_QM_Dipole_X_(debye)> (1)
-2.23969556837095

>  <r_j_QM_Dipole_Y_(debye)> (1)
-0.481142521900193

>  <r_j_QM_Dipole_Z_(debye)> (1)
-2.4566707625442

>  <r_j_Lowest_Frequency_(cm-1)> (1)
33.2242916710339

>  <r_j_Highest_Frequency_(cm-1)> (1)
3021.70049220994

>  <r_j_2nd_Lowest_Frequency_(cm-1)> (1)
44.8466764508437

>  <i_j_Num_Negative_Frequencies> (1)
0

>  <r_j_Zero_Point_Energy_(kcal/mol)> (1)
191.761138702016

>  <r_j_Entropy_(cal/mol/K)_298.15K_1.00E+00atm> (1)
133.561129046687

>  <r_j_Enthalpy_(kcal/mol)_298.15K_1.00E+00atm> (1)
11.4480754619586

>  <r_j_Free_Energy_(kcal/mol)_298.15K_1.00E+00atm> (1)
-28.3731751633112

>  <r_j_Internal_Energy_(kcal/mol)_298.15K_1.00E+00atm> (1)
10.8555898731313

>  <r_j_Heat_Capacity_(cal/mol/K)_298.15K_1.00E+00atm> (1)
63.6904541318721

>  <r_j_ln(Q)_298.15K_1.00E+00atm> (1)
47.8883802380259

>  <r_j_Total_Internal_Energy_(au)_298.15K_1.00E+00atm> (1)
-770.281391202601

>  <r_j_Total_Enthalpy_(au)_298.15K_1.00E+00atm> (1)
-770.280447016709

>  <r_j_Total_Free_Energy_(au)_298.15K_1.00E+00atm> (1)
-770.343906219365

>  <r_epik_Ionization_Penalty> (1)
  0.0097

>  <r_epik_Ionization_Penalty_Charging> (1)
  0.0097

>  <r_epik_Ionization_Penalty_Neutral> (1)
  0.0000

>  <r_epik_State_Penalty> (1)
  0.0074

>  <r_epik_Charging_Adjusted_Penalty> (1)
0.0170680524587756

>  <i_epik_Tot_Q> (1)
-2

>  <i_epik_Tot_abs_Q> (1)
2

>  <s_lp_Force_Field> (1)
S-OPLS

>  <r_lp_Energy> (1)
12.316469

>  <b_lp_Chiralities_Consistent> (1)
1

$$$$
