12746_1-Methylcyclopentene
                    3D
 Schrodinger Suite 2021-3.
 16 16  0  0  1  0            999 V2000
    0.0001   -0.0175    0.0329 C   0  0  0  0  0  0
    1.4969   -0.0153   -0.0041 C   0  0  0  0  0  0
    2.3153   -1.0642    0.1402 C   0  0  0  0  0  0
    3.7739   -0.6744    0.1054 C   0  0  0  0  0  0
    3.7281    0.7748   -0.4476 C   0  0  0  0  0  0
    2.2883    1.2691   -0.1627 C   0  0  0  0  0  0
   -0.3750    0.6189    0.8455 H   0  0  0  0  0  0
   -0.4018   -1.0246    0.1778 H   0  0  0  0  0  0
   -0.4192    0.3881   -0.8972 H   0  0  0  0  0  0
    1.9803   -2.0840    0.3100 H   0  0  0  0  0  0
    4.2094   -0.7105    1.1156 H   0  0  0  0  0  0
    4.3859   -1.3404   -0.5152 H   0  0  0  0  0  0
    4.4971    1.4220   -0.0163 H   0  0  0  0  0  0
    3.8920    0.7506   -1.5303 H   0  0  0  0  0  0
    1.8955    1.9130   -0.9600 H   0  0  0  0  0  0
    2.2320    1.8610    0.7638 H   0  0  0  0  0  0
  1  2  1  0  0  0
  1  7  1  0  0  0
  1  8  1  0  0  0
  1  9  1  0  0  0
  2  6  1  0  0  0
  2  3  2  0  0  0
  3  4  1  0  0  0
  3 10  1  0  0  0
  4  5  1  0  0  0
  4 11  1  0  0  0
  4 12  1  0  0  0
  5  6  1  0  0  0
  5 13  1  0  0  0
  5 14  1  0  0  0
  6 15  1  0  0  0
  6 16  1  0  0  0
M  END
>  <i_m_Spin_multiplicity> (1)
1

>  <s_j_Task> (1)
Single Point

>  <s_j_QM_Method> (1)
DFT(b3lyp-d3)

>  <s_j_QM_Basis> (1)
cc-pvtz(-f)

>  <i_j_Number_of_canonical_orbitals> (1)
226

>  <i_j_Geometry_convergence_category> (1)
0

>  <r_j_Gas_Phase_Energy> (1)
-234.735899256066

>  <r_j_Final_Energy> (1)
-234.735899256066

>  <r_j_HOMO> (1)
-0.232718039463714

>  <r_j_LUMO> (1)
0.0203746363128981

>  <r_j_Polarizability> (1)
69.048171223728

>  <r_j_QM_Dipole_(debye)> (1)
0.2499326801282

>  <r_j_QM_Dipole_X_(debye)> (1)
-0.146111382081653

>  <r_j_QM_Dipole_Y_(debye)> (1)
0.200699048802714

>  <r_j_QM_Dipole_Z_(debye)> (1)
0.0289430549863077

>  <r_j_Lowest_Frequency_(cm-1)> (1)
185.99182160484

>  <r_j_Highest_Frequency_(cm-1)> (1)
3127.68341874668

>  <r_j_2nd_Lowest_Frequency_(cm-1)> (1)
242.712624422497

>  <i_j_Num_Negative_Frequencies> (1)
0

>  <r_j_Zero_Point_Energy_(kcal/mol)> (1)
90.2534317600006

>  <r_j_Entropy_(cal/mol/K)_298.15K_1.00E+00atm> (1)
75.4364960501158

>  <r_j_Enthalpy_(kcal/mol)_298.15K_1.00E+00atm> (1)
4.29562641260263

>  <r_j_Free_Energy_(kcal/mol)_298.15K_1.00E+00atm> (1)
-18.1957648847394

>  <r_j_Internal_Energy_(kcal/mol)_298.15K_1.00E+00atm> (1)
3.70314082377535

>  <r_j_Heat_Capacity_(cal/mol/K)_298.15K_1.00E+00atm> (1)
22.5325681727069

>  <r_j_ln(Q)_298.15K_1.00E+00atm> (1)
30.710898674776

>  <r_j_Total_Internal_Energy_(au)_298.15K_1.00E+00atm> (1)
-234.586169925951

>  <r_j_Total_Enthalpy_(au)_298.15K_1.00E+00atm> (1)
-234.585225740059

>  <r_j_Total_Free_Energy_(au)_298.15K_1.00E+00atm> (1)
-234.621068053797

>  <r_lp_tautomer_probability> (1)
1

>  <r_epik_Ionization_Penalty> (1)
  0.0000

>  <r_epik_Ionization_Penalty_Charging> (1)
  0.0000

>  <r_epik_Ionization_Penalty_Neutral> (1)
  0.0000

>  <r_epik_State_Penalty> (1)
  0.0000

>  <r_epik_Charging_Adjusted_Penalty> (1)
0

>  <i_epik_Tot_Q> (1)
0

>  <i_epik_Tot_abs_Q> (1)
0

>  <s_lp_Force_Field> (1)
S-OPLS

>  <r_lp_Energy> (1)
-7.63363

>  <b_lp_Chiralities_Consistent> (1)
1

$$$$
