12813_G-decanolactone
                    3D
 Schrodinger Suite 2021-3.
 30 30  0  0  1  0            999 V2000
   -2.1470    1.5111    0.0319 C   0  0  0  0  0  0
   -0.6170    1.4749   -0.0238 C   0  0  0  0  0  0
   -0.0475    0.0522    0.0280 C   0  0  0  0  0  0
    1.4832    0.0092   -0.0358 C   0  0  0  0  0  0
    2.0543   -1.4117    0.0197 C   0  0  0  0  0  0
    3.5839   -1.4421   -0.0624 C   0  0  0  0  0  0
    4.1715   -2.8501    0.0154 C   0  0  0  0  0  0
    5.7148   -2.8884    0.0577 C   0  0  0  0  0  0
    6.0072   -2.8571    1.5604 C   0  0  0  0  0  0
    4.7561   -3.4716    2.1813 C   0  0  0  0  0  0
    4.6067   -3.8894    3.2994 O   0  0  0  0  0  0
    3.7540   -3.4836    1.2554 O   0  0  0  0  0  0
   -2.5271    2.5372   -0.0063 H   0  0  0  0  0  0
   -2.5188    1.0514    0.9547 H   0  0  0  0  0  0
   -2.5850    0.9615   -0.8093 H   0  0  0  0  0  0
   -0.2703    1.9694   -0.9416 H   0  0  0  0  0  0
   -0.2042    2.0594    0.8098 H   0  0  0  0  0  0
   -0.3875   -0.4430    0.9486 H   0  0  0  0  0  0
   -0.4634   -0.5358   -0.8028 H   0  0  0  0  0  0
    1.8219    0.5046   -0.9574 H   0  0  0  0  0  0
    1.8976    0.5990    0.7944 H   0  0  0  0  0  0
    1.7386   -1.9056    0.9458 H   0  0  0  0  0  0
    1.6365   -2.0076   -0.8043 H   0  0  0  0  0  0
    3.9197   -0.9874   -1.0044 H   0  0  0  0  0  0
    4.0119   -0.8349    0.7475 H   0  0  0  0  0  0
    3.7646   -3.4697   -0.7901 H   0  0  0  0  0  0
    6.0790   -3.8224   -0.3806 H   0  0  0  0  0  0
    6.1585   -2.0583   -0.4972 H   0  0  0  0  0  0
    6.8917   -3.4134    1.8745 H   0  0  0  0  0  0
    6.1057   -1.8363    1.9470 H   0  0  0  0  0  0
  1  2  1  0  0  0
  1 13  1  0  0  0
  1 14  1  0  0  0
  1 15  1  0  0  0
  2  3  1  0  0  0
  2 16  1  0  0  0
  2 17  1  0  0  0
  3  4  1  0  0  0
  3 18  1  0  0  0
  3 19  1  0  0  0
  4  5  1  0  0  0
  4 20  1  0  0  0
  4 21  1  0  0  0
  5  6  1  0  0  0
  5 22  1  0  0  0
  5 23  1  0  0  0
  6  7  1  0  0  0
  6 24  1  0  0  0
  6 25  1  0  0  0
  7 12  1  0  0  0
  7  8  1  0  0  0
  7 26  1  0  0  0
  8  9  1  0  0  0
  8 27  1  0  0  0
  8 28  1  0  0  0
  9 10  1  0  0  0
  9 29  1  0  0  0
  9 30  1  0  0  0
 10 11  2  0  0  0
 10 12  1  0  0  0
M  END
>  <i_m_Spin_multiplicity> (1)
1

>  <s_j_Task> (1)
Single Point

>  <s_j_QM_Method> (1)
DFT(b3lyp-d3)

>  <s_j_QM_Basis> (1)
cc-pvtz(-f)

>  <i_j_Number_of_canonical_orbitals> (1)
435

>  <i_j_Geometry_convergence_category> (1)
3

>  <r_j_Gas_Phase_Energy> (1)
-542.591240741963

>  <r_j_Final_Energy> (1)
-542.591240741963

>  <r_j_HOMO> (1)
-0.300761547120914

>  <r_j_LUMO> (1)
-0.0242402035453688

>  <r_j_Polarizability> (1)
123.087980785218

>  <r_j_QM_Dipole_(debye)> (1)
4.48394257965799

>  <r_j_QM_Dipole_X_(debye)> (1)
1.40443611069354

>  <r_j_QM_Dipole_Y_(debye)> (1)
2.08404291808832

>  <r_j_QM_Dipole_Z_(debye)> (1)
-3.71349772912491

>  <r_j_Lowest_Frequency_(cm-1)> (1)
54.3973264457967

>  <r_j_Highest_Frequency_(cm-1)> (1)
3082.75122815522

>  <r_j_2nd_Lowest_Frequency_(cm-1)> (1)
87.2650441560815

>  <i_j_Num_Negative_Frequencies> (1)
0

>  <r_j_Zero_Point_Energy_(kcal/mol)> (1)
168.298143822462

>  <r_j_Entropy_(cal/mol/K)_298.15K_1.00E+00atm> (1)
109.396788424091

>  <r_j_Enthalpy_(kcal/mol)_298.15K_1.00E+00atm> (1)
8.40526320460085

>  <r_j_Free_Energy_(kcal/mol)_298.15K_1.00E+00atm> (1)
-24.2113892640418

>  <r_j_Internal_Energy_(kcal/mol)_298.15K_1.00E+00atm> (1)
7.81277761577358

>  <r_j_Heat_Capacity_(cal/mol/K)_298.15K_1.00E+00atm> (1)
47.5894766337545

>  <r_j_ln(Q)_298.15K_1.00E+00atm> (1)
40.8640981664451

>  <r_j_Total_Internal_Energy_(au)_298.15K_1.00E+00atm> (1)
-542.310590122557

>  <r_j_Total_Enthalpy_(au)_298.15K_1.00E+00atm> (1)
-542.309645936665

>  <r_j_Total_Free_Energy_(au)_298.15K_1.00E+00atm> (1)
-542.361623881267

>  <r_lp_tautomer_probability> (1)
1

>  <r_epik_Ionization_Penalty> (1)
  0.0000

>  <r_epik_Ionization_Penalty_Charging> (1)
  0.0000

>  <r_epik_Ionization_Penalty_Neutral> (1)
  0.0000

>  <r_epik_State_Penalty> (1)
  0.0000

>  <r_epik_Charging_Adjusted_Penalty> (1)
0

>  <i_epik_Tot_Q> (1)
0

>  <i_epik_Tot_abs_Q> (1)
0

>  <s_lp_Force_Field> (1)
S-OPLS

>  <r_lp_Energy> (1)
0.120255

>  <b_lp_Chiralities_Consistent> (1)
1

>  <s_epik_Chemistry_Notes> (1)
This compound has an ester and may undergo hydrolysis at high or low pH.

$$$$
