12871038_1-Methyl-2-benzofuran
                    3D
 Schrodinger Suite 2021-3.
 18 19  0  0  1  0            999 V2000
    0.0304    0.0398    0.0000 C   0  0  0  0  0  0
    1.5157    0.0113    0.0000 C   0  0  0  0  0  0
    2.4860    0.9914    0.0000 C   0  0  0  0  0  0
    2.4435    2.4184    0.0000 C   0  0  0  0  0  0
    3.6248    3.1074    0.0000 C   0  0  0  0  0  0
    4.8923    2.4278    0.0000 C   0  0  0  0  0  0
    4.9782    1.0630    0.0000 C   0  0  0  0  0  0
    3.7675    0.3043    0.0000 C   0  0  0  0  0  0
    3.4734   -1.0380    0.0000 C   0  0  0  0  0  0
    2.1209   -1.2092    0.0000 O   0  0  0  0  0  0
   -0.3155    1.0765    0.0000 H   0  0  0  0  0  0
   -0.3839   -0.4583    0.8844 H   0  0  0  0  0  0
   -0.3839   -0.4583   -0.8845 H   0  0  0  0  0  0
    1.4907    2.9399    0.0000 H   0  0  0  0  0  0
    3.6177    4.1935    0.0000 H   0  0  0  0  0  0
    5.8000    3.0245    0.0000 H   0  0  0  0  0  0
    5.9412    0.5618   -0.0001 H   0  0  0  0  0  0
    4.0673   -1.9377    0.0000 H   0  0  0  0  0  0
  1  2  1  0  0  0
  1 11  1  0  0  0
  1 12  1  0  0  0
  1 13  1  0  0  0
  2 10  1  0  0  0
  2  3  2  0  0  0
  3  8  1  0  0  0
  3  4  1  0  0  0
  4  5  2  0  0  0
  4 14  1  0  0  0
  5  6  1  0  0  0
  5 15  1  0  0  0
  6  7  2  0  0  0
  6 16  1  0  0  0
  7  8  1  0  0  0
  7 17  1  0  0  0
  8  9  2  0  0  0
  9 10  1  0  0  0
  9 18  1  0  0  0
M  END
>  <i_m_Spin_multiplicity> (1)
1

>  <s_j_Task> (1)
Single Point

>  <s_j_QM_Method> (1)
DFT(b3lyp-d3)

>  <s_j_QM_Basis> (1)
cc-pvtz(-f)

>  <i_j_Number_of_canonical_orbitals> (1)
296

>  <i_j_Geometry_convergence_category> (1)
0

>  <r_j_Gas_Phase_Energy> (1)
-423.118011310733

>  <r_j_Final_Energy> (1)
-423.118011310733

>  <r_j_HOMO> (1)
-0.189694586825477

>  <r_j_LUMO> (1)
-0.0438494157445701

>  <r_j_Polarizability> (1)
104.874249931962

>  <r_j_QM_Dipole_(debye)> (1)
0.523501879011261

>  <r_j_QM_Dipole_X_(debye)> (1)
-0.476519663023631

>  <r_j_QM_Dipole_Y_(debye)> (1)
0.216756144816246

>  <r_j_QM_Dipole_Z_(debye)> (1)
-4.20067331418282e-05

>  <r_j_Lowest_Frequency_(cm-1)> (1)
159.853755002989

>  <r_j_Highest_Frequency_(cm-1)> (1)
3235.21464298654

>  <r_j_2nd_Lowest_Frequency_(cm-1)> (1)
209.268532617272

>  <i_j_Num_Negative_Frequencies> (1)
0

>  <r_j_Zero_Point_Energy_(kcal/mol)> (1)
90.1699981939338

>  <r_j_Entropy_(cal/mol/K)_298.15K_1.00E+00atm> (1)
85.3165686434775

>  <r_j_Enthalpy_(kcal/mol)_298.15K_1.00E+00atm> (1)
5.36057561941826

>  <r_j_Free_Energy_(kcal/mol)_298.15K_1.00E+00atm> (1)
-20.0765593216346

>  <r_j_Internal_Energy_(kcal/mol)_298.15K_1.00E+00atm> (1)
4.76809003059099

>  <r_j_Heat_Capacity_(cal/mol/K)_298.15K_1.00E+00atm> (1)
30.8608358422538

>  <r_j_ln(Q)_298.15K_1.00E+00atm> (1)
33.8853124873007

>  <r_j_Total_Internal_Energy_(au)_298.15K_1.00E+00atm> (1)
-422.966717835872

>  <r_j_Total_Enthalpy_(au)_298.15K_1.00E+00atm> (1)
-422.96577364998

>  <r_j_Total_Free_Energy_(au)_298.15K_1.00E+00atm> (1)
-423.006310305054

>  <r_lp_tautomer_probability> (1)
1

>  <r_epik_Ionization_Penalty> (1)
  0.0000

>  <r_epik_Ionization_Penalty_Charging> (1)
  0.0000

>  <r_epik_Ionization_Penalty_Neutral> (1)
  0.0000

>  <r_epik_State_Penalty> (1)
  0.0000

>  <r_epik_Charging_Adjusted_Penalty> (1)
0

>  <i_epik_Tot_Q> (1)
0

>  <i_epik_Tot_abs_Q> (1)
0

>  <s_lp_Force_Field> (1)
S-OPLS

>  <r_lp_Energy> (1)
11.3887

>  <b_lp_Chiralities_Consistent> (1)
1

$$$$
