12943206_Stigmasta-4,6-dien-3-one
                    3D
 Schrodinger Suite 2021-3.
 76 79  0  0  1  0            999 V2000
   -0.6867   -1.9424    1.8698 C   0  0  0  0  0  0
   -0.9245   -0.5190    1.3531 C   0  0  0  0  0  0
   -0.1367   -0.1517    0.0741 C   0  0  0  0  0  0
    1.3791   -0.4171    0.2424 C   0  0  0  0  0  0
    2.0313    0.4172    1.3559 C   0  0  0  0  0  0
    3.5645    0.5382    1.2778 C   0  0  0  0  0  0
    4.2213   -0.8506    1.3625 C   0  0  0  0  0  0
    4.1384    1.4880    2.3601 C   0  0  0  0  0  0
    5.6734    1.6199    2.3121 C   0  0  0  0  0  0
    5.9732    2.7654    3.2792 C   0  0  0  0  0  0
    4.8281    3.7843    3.0660 C   0  0  0  0  0  0
    3.6419    2.9851    2.3800 C   0  0  0  0  0  0
    2.3381    3.1764    3.1927 C   0  0  0  0  0  0
    2.0314    4.6514    3.4831 C   0  0  0  0  0  0
    3.1200    5.3304    4.3506 C   0  0  0  0  0  0
    4.4212    4.4839    4.3896 C   0  0  0  0  0  0
    5.5572    5.2514    4.9997 C   0  0  0  0  0  0
    5.5060    6.5598    5.3045 C   0  0  0  0  0  0
    4.3671    7.4103    4.9878 C   0  0  0  0  0  0
    4.2864    8.6724    5.4779 C   0  0  0  0  0  0
    3.1991    9.6080    5.1667 C   0  0  0  0  0  0
    3.1752   10.7435    5.6274 O   0  0  0  0  0  0
    2.1201    9.1103    4.2135 C   0  0  0  0  0  0
    1.9821    7.5842    4.2233 C   0  0  0  0  0  0
    3.3275    6.8445    4.0236 C   0  0  0  0  0  0
    3.8661    7.0853    2.5909 C   0  0  0  0  0  0
    3.4641    3.5234    0.9450 C   0  0  0  0  0  0
   -0.4609    1.3014   -0.3852 C   0  0  0  0  0  0
   -1.9363    1.4589   -0.7924 C   0  0  0  0  0  0
    0.4339    1.7737   -1.5428 C   0  0  0  0  0  0
   -1.3672   -2.1744    2.6956 H   0  0  0  0  0  0
    0.3341   -2.0822    2.2390 H   0  0  0  0  0  0
   -0.8581   -2.6830    1.0797 H   0  0  0  0  0  0
   -1.9954   -0.3996    1.1607 H   0  0  0  0  0  0
   -0.6804    0.2017    2.1456 H   0  0  0  0  0  0
   -0.4835   -0.8209   -0.7301 H   0  0  0  0  0  0
    1.5298   -1.4851    0.4295 H   0  0  0  0  0  0
    1.8886   -0.2174   -0.7071 H   0  0  0  0  0  0
    1.6031    1.4179    1.3146 H   0  0  0  0  0  0
    1.7546    0.0145    2.3401 H   0  0  0  0  0  0
    3.8142    0.9588    0.2928 H   0  0  0  0  0  0
    4.0438   -1.3036    2.3462 H   0  0  0  0  0  0
    5.3016   -0.8047    1.2043 H   0  0  0  0  0  0
    3.8126   -1.5274    0.6071 H   0  0  0  0  0  0
    3.8817    1.0526    3.3397 H   0  0  0  0  0  0
    6.1923    0.6986    2.5895 H   0  0  0  0  0  0
    5.9941    1.8754    1.2929 H   0  0  0  0  0  0
    5.9440    2.3808    4.3082 H   0  0  0  0  0  0
    6.9638    3.2076    3.1341 H   0  0  0  0  0  0
    5.1733    4.5491    2.3642 H   0  0  0  0  0  0
    1.4893    2.7422    2.6591 H   0  0  0  0  0  0
    2.4110    2.6204    4.1366 H   0  0  0  0  0  0
    1.9168    5.1755    2.5293 H   0  0  0  0  0  0
    1.0590    4.7335    3.9792 H   0  0  0  0  0  0
    2.7614    5.3243    5.3892 H   0  0  0  0  0  0
    4.2175    3.6569    5.0882 H   0  0  0  0  0  0
    6.4561    4.6881    5.2409 H   0  0  0  0  0  0
    6.3483    7.0298    5.8079 H   0  0  0  0  0  0
    5.0596    9.0608    6.1370 H   0  0  0  0  0  0
    1.1811    9.6049    4.4780 H   0  0  0  0  0  0
    2.3847    9.4713    3.2111 H   0  0  0  0  0  0
    1.5626    7.2766    5.1901 H   0  0  0  0  0  0
    1.2672    7.2697    3.4558 H   0  0  0  0  0  0
    3.1842    6.6882    1.8343 H   0  0  0  0  0  0
    4.8440    6.6206    2.4539 H   0  0  0  0  0  0
    3.9886    8.1544    2.4001 H   0  0  0  0  0  0
    3.2993    4.6036    0.9452 H   0  0  0  0  0  0
    2.6167    3.0630    0.4297 H   0  0  0  0  0  0
    4.3610    3.3402    0.3451 H   0  0  0  0  0  0
   -0.2842    1.9739    0.4677 H   0  0  0  0  0  0
   -2.1837    0.7851   -1.6220 H   0  0  0  0  0  0
   -2.1372    2.4822   -1.1270 H   0  0  0  0  0  0
   -2.6248    1.2450    0.0287 H   0  0  0  0  0  0
    0.3656    1.0860   -2.3948 H   0  0  0  0  0  0
    1.4869    1.8452   -1.2575 H   0  0  0  0  0  0
    0.1226    2.7640   -1.8914 H   0  0  0  0  0  0
  1  2  1  0  0  0
  1 31  1  0  0  0
  1 32  1  0  0  0
  1 33  1  0  0  0
  2  3  1  0  0  0
  2 34  1  0  0  0
  2 35  1  0  0  0
  3  4  1  0  0  0
  3 28  1  0  0  0
  3 36  1  0  0  0
  4  5  1  0  0  0
  4 37  1  0  0  0
  4 38  1  0  0  0
  5  6  1  0  0  0
  5 39  1  0  0  0
  5 40  1  0  0  0
  6  7  1  0  0  0
  6  8  1  0  0  0
  6 41  1  0  0  0
  7 42  1  0  0  0
  7 43  1  0  0  0
  7 44  1  0  0  0
  8 12  1  0  0  0
  8  9  1  0  0  0
  8 45  1  0  0  0
  9 10  1  0  0  0
  9 46  1  0  0  0
  9 47  1  0  0  0
 10 11  1  0  0  0
 10 48  1  0  0  0
 10 49  1  0  0  0
 11 16  1  0  0  0
 11 12  1  0  0  0
 11 50  1  0  0  0
 12 13  1  0  0  0
 12 27  1  0  0  0
 13 14  1  0  0  0
 13 51  1  0  0  0
 13 52  1  0  0  0
 14 15  1  0  0  0
 14 53  1  0  0  0
 14 54  1  0  0  0
 15 25  1  0  0  0
 15 16  1  0  0  0
 15 55  1  0  0  0
 16 17  1  0  0  0
 16 56  1  0  0  0
 17 18  2  0  0  0
 17 57  1  0  0  0
 18 19  1  0  0  0
 18 58  1  0  0  0
 19 25  1  0  0  0
 19 20  2  0  0  0
 20 21  1  0  0  0
 20 59  1  0  0  0
 21 22  2  0  0  0
 21 23  1  0  0  0
 23 24  1  0  0  0
 23 60  1  0  0  0
 23 61  1  0  0  0
 24 25  1  0  0  0
 24 62  1  0  0  0
 24 63  1  0  0  0
 25 26  1  0  0  0
 26 64  1  0  0  0
 26 65  1  0  0  0
 26 66  1  0  0  0
 27 67  1  0  0  0
 27 68  1  0  0  0
 27 69  1  0  0  0
 28 29  1  0  0  0
 28 30  1  0  0  0
 28 70  1  0  0  0
 29 71  1  0  0  0
 29 72  1  0  0  0
 29 73  1  0  0  0
 30 74  1  0  0  0
 30 75  1  0  0  0
 30 76  1  0  0  0
M  END
>  <i_m_Spin_multiplicity> (1)
1

>  <s_j_Task> (1)
Single Point

>  <s_j_QM_Method> (1)
DFT(b3lyp-d3)

>  <s_j_QM_Basis> (1)
cc-pvtz(-f)

>  <i_j_Number_of_canonical_orbitals> (1)
1084

>  <i_j_Geometry_convergence_category> (1)
4

>  <r_j_Gas_Phase_Energy> (1)
-1208.49426199578

>  <r_j_Final_Energy> (1)
-1208.49426199578

>  <r_j_HOMO> (1)
-0.219447031354164

>  <r_j_LUMO> (1)
-0.0575415687560514

>  <r_j_Polarizability> (1)
341.315590303598

>  <r_j_QM_Dipole_(debye)> (1)
5.54070955656004

>  <r_j_QM_Dipole_X_(debye)> (1)
0.156243268667025

>  <r_j_QM_Dipole_Y_(debye)> (1)
-5.1599565804792

>  <r_j_QM_Dipole_Z_(debye)> (1)
-2.0124359663655

>  <r_j_Lowest_Frequency_(cm-1)> (1)
41.4394171316202

>  <r_j_Highest_Frequency_(cm-1)> (1)
3122.25229787793

>  <r_j_2nd_Lowest_Frequency_(cm-1)> (1)
44.3062124792694

>  <i_j_Num_Negative_Frequencies> (1)
0

>  <r_j_Zero_Point_Energy_(kcal/mol)> (1)
436.186871126263

>  <r_j_Entropy_(cal/mol/K)_298.15K_1.00E+00atm> (1)
174.840387042

>  <r_j_Enthalpy_(kcal/mol)_298.15K_1.00E+00atm> (1)
18.5911571176004

>  <r_j_Free_Energy_(kcal/mol)_298.15K_1.00E+00atm> (1)
-33.5375042789718

>  <r_j_Internal_Energy_(kcal/mol)_298.15K_1.00E+00atm> (1)
17.9986715287731

>  <r_j_Heat_Capacity_(cal/mol/K)_298.15K_1.00E+00atm> (1)
122.114322150264

>  <r_j_ln(Q)_298.15K_1.00E+00atm> (1)
56.6047595273222

>  <r_j_Total_Internal_Energy_(au)_298.15K_1.00E+00atm> (1)
-1207.77047125736

>  <r_j_Total_Enthalpy_(au)_298.15K_1.00E+00atm> (1)
-1207.76952707147

>  <r_j_Total_Free_Energy_(au)_298.15K_1.00E+00atm> (1)
-1207.85259938175

>  <r_lp_tautomer_probability> (1)
1

>  <r_epik_Ionization_Penalty> (1)
  0.0000

>  <r_epik_Ionization_Penalty_Charging> (1)
  0.0000

>  <r_epik_Ionization_Penalty_Neutral> (1)
  0.0000

>  <r_epik_State_Penalty> (1)
  0.0000

>  <r_epik_Charging_Adjusted_Penalty> (1)
0

>  <i_epik_Tot_Q> (1)
0

>  <i_epik_Tot_abs_Q> (1)
0

>  <s_lp_Force_Field> (1)
S-OPLS

>  <r_lp_Energy> (1)
51.243995

>  <b_lp_Chiralities_Consistent> (1)
1

$$$$
