12970_2-ethyl-1-butene
                    3D
 Schrodinger Suite 2021-3.
 18 17  0  0  1  0            999 V2000
   -0.5221    1.1031   -0.4528 C   0  0  0  0  0  0
    0.1534   -0.0732    0.2723 C   0  0  0  0  0  0
    1.6673   -0.0001    0.2775 C   0  0  0  0  0  0
    2.3577   -0.0001    1.4227 C   0  0  0  0  0  0
    2.3695    0.0731   -1.0637 C   0  0  0  0  0  0
    2.0436   -1.1032   -1.9995 C   0  0  0  0  0  0
   -1.6118    1.0296   -0.3809 H   0  0  0  0  0  0
   -0.2627    1.1247   -1.5161 H   0  0  0  0  0  0
   -0.2164    2.0587   -0.0145 H   0  0  0  0  0  0
   -0.2074   -0.1202    1.3056 H   0  0  0  0  0  0
   -0.1653   -1.0099   -0.2054 H   0  0  0  0  0  0
    1.8631   -0.0457    2.3894 H   0  0  0  0  0  0
    3.4435    0.0455    1.4367 H   0  0  0  0  0  0
    2.0955    1.0098   -1.5686 H   0  0  0  0  0  0
    3.4517    0.1204   -0.9006 H   0  0  0  0  0  0
    2.6156   -1.0295   -2.9298 H   0  0  0  0  0  0
    0.9821   -1.1251   -2.2661 H   0  0  0  0  0  0
    2.2889   -2.0587   -1.5247 H   0  0  0  0  0  0
  1  2  1  0  0  0
  1  7  1  0  0  0
  1  8  1  0  0  0
  1  9  1  0  0  0
  2  3  1  0  0  0
  2 10  1  0  0  0
  2 11  1  0  0  0
  3  4  2  0  0  0
  3  5  1  0  0  0
  4 12  1  0  0  0
  4 13  1  0  0  0
  5  6  1  0  0  0
  5 14  1  0  0  0
  5 15  1  0  0  0
  6 16  1  0  0  0
  6 17  1  0  0  0
  6 18  1  0  0  0
M  END
>  <i_m_Spin_multiplicity> (1)
1

>  <s_j_Task> (1)
Single Point

>  <s_j_QM_Method> (1)
DFT(b3lyp-d3)

>  <s_j_QM_Basis> (1)
cc-pvtz(-f)

>  <i_j_Number_of_canonical_orbitals> (1)
244

>  <i_j_Geometry_convergence_category> (1)
1

>  <r_j_Gas_Phase_Energy> (1)
-235.947480019354

>  <r_j_Final_Energy> (1)
-235.947480019354

>  <r_j_HOMO> (1)
-0.2502814282996

>  <r_j_LUMO> (1)
0.00978147959652352

>  <r_j_Polarizability> (1)
73.5492381620899

>  <r_j_QM_Dipole_(debye)> (1)
0.538602493334324

>  <r_j_QM_Dipole_X_(debye)> (1)
-0.278147922145273

>  <r_j_QM_Dipole_Y_(debye)> (1)
5.83775835248248e-06

>  <r_j_QM_Dipole_Z_(debye)> (1)
-0.461222700219902

>  <r_j_Lowest_Frequency_(cm-1)> (1)
99.5254984338365

>  <r_j_Highest_Frequency_(cm-1)> (1)
3162.32042655294

>  <r_j_2nd_Lowest_Frequency_(cm-1)> (1)
149.441347414343

>  <i_j_Num_Negative_Frequencies> (1)
0

>  <r_j_Zero_Point_Energy_(kcal/mol)> (1)
103.615739880977

>  <r_j_Entropy_(cal/mol/K)_298.15K_1.00E+00atm> (1)
82.0706043862328

>  <r_j_Enthalpy_(kcal/mol)_298.15K_1.00E+00atm> (1)
5.17503916392174

>  <r_j_Free_Energy_(kcal/mol)_298.15K_1.00E+00atm> (1)
-19.2943115338336

>  <r_j_Internal_Energy_(kcal/mol)_298.15K_1.00E+00atm> (1)
4.58255357509447

>  <r_j_Heat_Capacity_(cal/mol/K)_298.15K_1.00E+00atm> (1)
27.1891127310107

>  <r_j_ln(Q)_298.15K_1.00E+00atm> (1)
32.5650309436613

>  <r_j_Total_Internal_Energy_(au)_298.15K_1.00E+00atm> (1)
-235.775055062235

>  <r_j_Total_Enthalpy_(au)_298.15K_1.00E+00atm> (1)
-235.774110876343

>  <r_j_Total_Free_Energy_(au)_298.15K_1.00E+00atm> (1)
-235.813105269046

>  <r_lp_tautomer_probability> (1)
1

>  <r_epik_Ionization_Penalty> (1)
  0.0000

>  <r_epik_Ionization_Penalty_Charging> (1)
  0.0000

>  <r_epik_Ionization_Penalty_Neutral> (1)
  0.0000

>  <r_epik_State_Penalty> (1)
  0.0000

>  <r_epik_Charging_Adjusted_Penalty> (1)
0

>  <i_epik_Tot_Q> (1)
0

>  <i_epik_Tot_abs_Q> (1)
0

>  <s_lp_Force_Field> (1)
S-OPLS

>  <r_lp_Energy> (1)
-0.870902

>  <b_lp_Chiralities_Consistent> (1)
1

$$$$
