12984_4,4-Dimethyl-1-pentene
                    3D
 Schrodinger Suite 2021-3.
 21 20  0  0  1  0            999 V2000
   -0.5532   -0.7728    1.2430 C   0  0  0  0  0  0
   -0.0552    0.0086    0.0129 C   0  0  0  0  0  0
   -0.4500   -0.7572   -1.2633 C   0  0  0  0  0  0
   -0.7008    1.4051   -0.0090 C   0  0  0  0  0  0
    1.4975    0.1408    0.0353 C   0  0  0  0  0  0
    2.0696    0.8282    1.2446 C   0  0  0  0  0  0
    2.6660    2.0212    1.2366 C   0  0  0  0  0  0
   -1.6363   -0.9289    1.1867 H   0  0  0  0  0  0
   -0.3463   -0.2357    2.1741 H   0  0  0  0  0  0
   -0.0765   -1.7581    1.3062 H   0  0  0  0  0  0
   -0.0173   -1.7645   -1.2718 H   0  0  0  0  0  0
   -0.1016   -0.2346   -2.1615 H   0  0  0  0  0  0
   -1.5384   -0.8597   -1.3372 H   0  0  0  0  0  0
   -1.7934    1.3273   -0.0378 H   0  0  0  0  0  0
   -0.3810    1.9713   -0.8916 H   0  0  0  0  0  0
   -0.4219    1.9840    0.8763 H   0  0  0  0  0  0
    1.9221   -0.8715   -0.0346 H   0  0  0  0  0  0
    1.8124    0.6768   -0.8693 H   0  0  0  0  0  0
    1.9758    0.2961    2.1913 H   0  0  0  0  0  0
    2.7860    2.5905    0.3175 H   0  0  0  0  0  0
    3.0591    2.4722    2.1432 H   0  0  0  0  0  0
  1  2  1  0  0  0
  1  8  1  0  0  0
  1  9  1  0  0  0
  1 10  1  0  0  0
  2  3  1  0  0  0
  2  4  1  0  0  0
  2  5  1  0  0  0
  3 11  1  0  0  0
  3 12  1  0  0  0
  3 13  1  0  0  0
  4 14  1  0  0  0
  4 15  1  0  0  0
  4 16  1  0  0  0
  5  6  1  0  0  0
  5 17  1  0  0  0
  5 18  1  0  0  0
  6  7  2  0  0  0
  6 19  1  0  0  0
  7 20  1  0  0  0
  7 21  1  0  0  0
M  END
>  <i_m_Spin_multiplicity> (1)
1

>  <s_j_Task> (1)
Single Point

>  <s_j_QM_Method> (1)
DFT(b3lyp-d3)

>  <s_j_QM_Basis> (1)
cc-pvtz(-f)

>  <i_j_Number_of_canonical_orbitals> (1)
285

>  <i_j_Geometry_convergence_category> (1)
3

>  <r_j_Gas_Phase_Energy> (1)
-275.276304680106

>  <r_j_Final_Energy> (1)
-275.276304680106

>  <r_j_HOMO> (1)
-0.25822213315407

>  <r_j_LUMO> (1)
0.00481107114461742

>  <r_j_Polarizability> (1)
85.5334412776219

>  <r_j_QM_Dipole_(debye)> (1)
0.300117713779381

>  <r_j_QM_Dipole_X_(debye)> (1)
-0.189026827635248

>  <r_j_QM_Dipole_Y_(debye)> (1)
-0.223517540640863

>  <r_j_QM_Dipole_Z_(debye)> (1)
-0.0661771077048317

>  <r_j_Lowest_Frequency_(cm-1)> (1)
121.212013266599

>  <r_j_Highest_Frequency_(cm-1)> (1)
3167.26005400778

>  <r_j_2nd_Lowest_Frequency_(cm-1)> (1)
132.958196245984

>  <i_j_Num_Negative_Frequencies> (1)
0

>  <r_j_Zero_Point_Energy_(kcal/mol)> (1)
120.946140031283

>  <r_j_Entropy_(cal/mol/K)_298.15K_1.00E+00atm> (1)
86.5196573768213

>  <r_j_Enthalpy_(kcal/mol)_298.15K_1.00E+00atm> (1)
5.86474360324245

>  <r_j_Free_Energy_(kcal/mol)_298.15K_1.00E+00atm> (1)
-19.9310922436568

>  <r_j_Internal_Energy_(kcal/mol)_298.15K_1.00E+00atm> (1)
5.27225801441518

>  <r_j_Heat_Capacity_(cal/mol/K)_298.15K_1.00E+00atm> (1)
32.8068294668739

>  <r_j_ln(Q)_298.15K_1.00E+00atm> (1)
33.6397924599433

>  <r_j_Total_Internal_Energy_(au)_298.15K_1.00E+00atm> (1)
-275.075162858221

>  <r_j_Total_Enthalpy_(au)_298.15K_1.00E+00atm> (1)
-275.074218672329

>  <r_j_Total_Free_Energy_(au)_298.15K_1.00E+00atm> (1)
-275.115326953686

>  <r_lp_tautomer_probability> (1)
1

>  <r_epik_Ionization_Penalty> (1)
  0.0000

>  <r_epik_Ionization_Penalty_Charging> (1)
  0.0000

>  <r_epik_Ionization_Penalty_Neutral> (1)
  0.0000

>  <r_epik_State_Penalty> (1)
  0.0000

>  <r_epik_Charging_Adjusted_Penalty> (1)
0

>  <i_epik_Tot_Q> (1)
0

>  <i_epik_Tot_abs_Q> (1)
0

>  <s_lp_Force_Field> (1)
S-OPLS

>  <r_lp_Energy> (1)
1.5192

>  <b_lp_Chiralities_Consistent> (1)
1

$$$$
