13009_2,4-dimethyl-1,3-Dioxane
                    3D
 Schrodinger Suite 2021-3.
 20 20  0  0  1  0            999 V2000
   -0.0240   -0.0313   -0.0157 C   0  0  0  0  0  0
    1.4930    0.0244    0.0380 C   0  0  0  0  0  0
    2.0423    0.6882    1.3064 C   0  0  0  0  0  0
    3.5617    0.5150    1.3455 C   0  0  0  0  0  0
    3.9073   -0.8612    1.2059 O   0  0  0  0  0  0
    3.3772   -1.4134    0.0159 C   0  0  0  0  0  0
    1.9660   -1.3273   -0.0276 O   0  0  0  0  0  0
    3.7574   -2.8759   -0.0311 C   0  0  0  0  0  0
   -0.4469    0.9780    0.0031 H   0  0  0  0  0  0
   -0.4090   -0.5890    0.8434 H   0  0  0  0  0  0
   -0.3546   -0.5348   -0.9281 H   0  0  0  0  0  0
    1.8757    0.5749   -0.8415 H   0  0  0  0  0  0
    1.7734    1.7508    1.3325 H   0  0  0  0  0  0
    1.5997    0.1978    2.1806 H   0  0  0  0  0  0
    4.0293    1.1049    0.5375 H   0  0  0  0  0  0
    3.9875    0.8478    2.2959 H   0  0  0  0  0  0
    3.7927   -0.8555   -0.8481 H   0  0  0  0  0  0
    3.3300   -3.3823    0.8377 H   0  0  0  0  0  0
    4.8444   -2.9811   -0.0082 H   0  0  0  0  0  0
    3.3648   -3.3343   -0.9415 H   0  0  0  0  0  0
  1  2  1  0  0  0
  1  9  1  0  0  0
  1 10  1  0  0  0
  1 11  1  0  0  0
  2  7  1  0  0  0
  2  3  1  0  0  0
  2 12  1  0  0  0
  3  4  1  0  0  0
  3 13  1  0  0  0
  3 14  1  0  0  0
  4  5  1  0  0  0
  4 15  1  0  0  0
  4 16  1  0  0  0
  5  6  1  0  0  0
  6  7  1  0  0  0
  6  8  1  0  0  0
  6 17  1  0  0  0
  8 18  1  0  0  0
  8 19  1  0  0  0
  8 20  1  0  0  0
M  END
>  <i_m_Spin_multiplicity> (1)
1

>  <s_j_Task> (1)
Single Point

>  <s_j_QM_Method> (1)
DFT(b3lyp-d3)

>  <s_j_QM_Basis> (1)
cc-pvtz(-f)

>  <i_j_Number_of_canonical_orbitals> (1)
291

>  <i_j_Geometry_convergence_category> (1)
0

>  <r_j_Gas_Phase_Energy> (1)
-386.460462359799

>  <r_j_Final_Energy> (1)
-386.460462359799

>  <r_j_HOMO> (1)
-0.271200597170869

>  <r_j_LUMO> (1)
0.0379786185531175

>  <r_j_Polarizability> (1)
78.9104665113169

>  <r_j_QM_Dipole_(debye)> (1)
1.72940819576353

>  <r_j_QM_Dipole_X_(debye)> (1)
-0.245683930010258

>  <r_j_QM_Dipole_Y_(debye)> (1)
1.63784321653203

>  <r_j_QM_Dipole_Z_(debye)> (1)
-0.4979575405281

>  <r_j_Lowest_Frequency_(cm-1)> (1)
176.209748289762

>  <r_j_Highest_Frequency_(cm-1)> (1)
3091.64616435601

>  <r_j_2nd_Lowest_Frequency_(cm-1)> (1)
184.162763338947

>  <i_j_Num_Negative_Frequencies> (1)
0

>  <r_j_Zero_Point_Energy_(kcal/mol)> (1)
111.155496704815

>  <r_j_Entropy_(cal/mol/K)_298.15K_1.00E+00atm> (1)
84.6147345704222

>  <r_j_Enthalpy_(kcal/mol)_298.15K_1.00E+00atm> (1)
5.45505517671874

>  <r_j_Free_Energy_(kcal/mol)_298.15K_1.00E+00atm> (1)
-19.7728279354526

>  <r_j_Internal_Energy_(kcal/mol)_298.15K_1.00E+00atm> (1)
4.86256958789146

>  <r_j_Heat_Capacity_(cal/mol/K)_298.15K_1.00E+00atm> (1)
30.6883774169634

>  <r_j_ln(Q)_298.15K_1.00E+00atm> (1)
33.3726732064313

>  <r_j_Total_Internal_Energy_(au)_298.15K_1.00E+00atm> (1)
-386.275575801365

>  <r_j_Total_Enthalpy_(au)_298.15K_1.00E+00atm> (1)
-386.274631615473

>  <r_j_Total_Free_Energy_(au)_298.15K_1.00E+00atm> (1)
-386.31483480653

>  <r_lp_tautomer_probability> (1)
1

>  <r_epik_Ionization_Penalty> (1)
  0.0000

>  <r_epik_Ionization_Penalty_Charging> (1)
  0.0000

>  <r_epik_Ionization_Penalty_Neutral> (1)
  0.0000

>  <r_epik_State_Penalty> (1)
  0.0000

>  <r_epik_Charging_Adjusted_Penalty> (1)
0

>  <i_epik_Tot_Q> (1)
0

>  <i_epik_Tot_abs_Q> (1)
0

>  <s_lp_Force_Field> (1)
S-OPLS

>  <r_lp_Energy> (1)
-0.426724

>  <b_lp_Chiralities_Consistent> (1)
1

>  <s_epik_Chemistry_Notes> (1)
This compound contains an acetal/aminal-like group ( X-CH(R)-Y where X, Y are N, S, or O) that may be acid/base labile, releasing an aldehyde.

$$$$
