13023_1-Methylindan
                    3D
 Schrodinger Suite 2021-3.
 22 23  0  0  1  0            999 V2000
   -0.0349    0.0254    0.0065 C   0  0  0  0  0  0
    1.5046   -0.0036    0.0052 C   0  0  0  0  0  0
    2.0772   -1.4492    0.0022 C   0  0  0  0  0  0
    2.2737   -1.8119   -1.4917 C   0  0  0  0  0  0
    2.4873   -0.4614   -2.1416 C   0  0  0  0  0  0
    3.0012   -0.1631   -3.4010 C   0  0  0  0  0  0
    3.0913    1.1741   -3.7995 C   0  0  0  0  0  0
    2.6660    2.1974   -2.9480 C   0  0  0  0  0  0
    2.1463    1.8961   -1.6856 C   0  0  0  0  0  0
    2.0643    0.5644   -1.2865 C   0  0  0  0  0  0
   -0.4085    1.0499   -0.0914 H   0  0  0  0  0  0
   -0.4351   -0.3985    0.9340 H   0  0  0  0  0  0
   -0.4339   -0.5537   -0.8336 H   0  0  0  0  0  0
    1.8624    0.5590    0.8762 H   0  0  0  0  0  0
    3.0518   -1.4516    0.5020 H   0  0  0  0  0  0
    1.4328   -2.1566    0.5332 H   0  0  0  0  0  0
    3.1062   -2.5047   -1.6544 H   0  0  0  0  0  0
    1.3770   -2.2944   -1.9048 H   0  0  0  0  0  0
    3.3350   -0.9568   -4.0647 H   0  0  0  0  0  0
    3.4984    1.4203   -4.7763 H   0  0  0  0  0  0
    2.7449    3.2327   -3.2680 H   0  0  0  0  0  0
    1.8168    2.6924   -1.0227 H   0  0  0  0  0  0
  1  2  1  0  0  0
  1 11  1  0  0  0
  1 12  1  0  0  0
  1 13  1  0  0  0
  2 10  1  0  0  0
  2  3  1  0  0  0
  2 14  1  0  0  0
  3  4  1  0  0  0
  3 15  1  0  0  0
  3 16  1  0  0  0
  4  5  1  0  0  0
  4 17  1  0  0  0
  4 18  1  0  0  0
  5 10  1  0  0  0
  5  6  2  0  0  0
  6  7  1  0  0  0
  6 19  1  0  0  0
  7  8  2  0  0  0
  7 20  1  0  0  0
  8  9  1  0  0  0
  8 21  1  0  0  0
  9 10  2  0  0  0
  9 22  1  0  0  0
M  END
>  <i_m_Spin_multiplicity> (1)
1

>  <s_j_Task> (1)
Single Point

>  <s_j_QM_Method> (1)
DFT(b3lyp-d3)

>  <s_j_QM_Basis> (1)
cc-pvtz(-f)

>  <i_j_Number_of_canonical_orbitals> (1)
331

>  <i_j_Geometry_convergence_category> (1)
0

>  <r_j_Gas_Phase_Energy> (1)
-388.439614665569

>  <r_j_Final_Energy> (1)
-388.439614665569

>  <r_j_HOMO> (1)
-0.222434244102504

>  <r_j_LUMO> (1)
0.00256107921185464

>  <r_j_Polarizability> (1)
109.003041821724

>  <r_j_QM_Dipole_(debye)> (1)
0.567242893636296

>  <r_j_QM_Dipole_X_(debye)> (1)
-0.155118206018792

>  <r_j_QM_Dipole_Y_(debye)> (1)
-0.374086123330307

>  <r_j_QM_Dipole_Z_(debye)> (1)
0.397193170729423

>  <r_j_Lowest_Frequency_(cm-1)> (1)
130.632303946033

>  <r_j_Highest_Frequency_(cm-1)> (1)
3141.90881001472

>  <r_j_2nd_Lowest_Frequency_(cm-1)> (1)
152.277742410703

>  <i_j_Num_Negative_Frequencies> (1)
0

>  <r_j_Zero_Point_Energy_(kcal/mol)> (1)
120.208474197217

>  <r_j_Entropy_(cal/mol/K)_298.15K_1.00E+00atm> (1)
87.0875312301634

>  <r_j_Enthalpy_(kcal/mol)_298.15K_1.00E+00atm> (1)
5.62720298193743

>  <r_j_Free_Energy_(kcal/mol)_298.15K_1.00E+00atm> (1)
-20.3379444543358

>  <r_j_Internal_Energy_(kcal/mol)_298.15K_1.00E+00atm> (1)
5.03471739311015

>  <r_j_Heat_Capacity_(cal/mol/K)_298.15K_1.00E+00atm> (1)
33.300475739762

>  <r_j_ln(Q)_298.15K_1.00E+00atm> (1)
34.3264795597667

>  <r_j_Total_Internal_Energy_(au)_298.15K_1.00E+00atm> (1)
-388.240026934104

>  <r_j_Total_Enthalpy_(au)_298.15K_1.00E+00atm> (1)
-388.239082748211

>  <r_j_Total_Free_Energy_(au)_298.15K_1.00E+00atm> (1)
-388.280460844762

>  <r_lp_tautomer_probability> (1)
1

>  <r_epik_Ionization_Penalty> (1)
  0.0000

>  <r_epik_Ionization_Penalty_Charging> (1)
  0.0000

>  <r_epik_Ionization_Penalty_Neutral> (1)
  0.0000

>  <r_epik_State_Penalty> (1)
  0.0000

>  <r_epik_Charging_Adjusted_Penalty> (1)
0

>  <i_epik_Tot_Q> (1)
0

>  <i_epik_Tot_abs_Q> (1)
0

>  <s_lp_Force_Field> (1)
S-OPLS

>  <r_lp_Energy> (1)
14.5083

>  <b_lp_Chiralities_Consistent> (1)
1

$$$$
