13068_9-methylanthracene
                    3D
 Schrodinger Suite 2021-3.
 27 29  0  0  1  0            999 V2000
   -0.0725   -0.0392    0.0000 C   0  0  0  0  0  0
    1.4406    0.0108    0.0000 C   0  0  0  0  0  0
    2.1500    1.2353    0.0000 C   0  0  0  0  0  0
    1.5141    2.5214    0.0000 C   0  0  0  0  0  0
    2.2364    3.6845    0.0000 C   0  0  0  0  0  0
    3.6591    3.6594    0.0000 C   0  0  0  0  0  0
    4.3148    2.4604    0.0000 C   0  0  0  0  0  0
    3.5986    1.2227    0.0000 C   0  0  0  0  0  0
    4.2809    0.0050    0.0000 C   0  0  0  0  0  0
    3.5968   -1.2132    0.0000 C   0  0  0  0  0  0
    4.2995   -2.4572    0.0000 C   0  0  0  0  0  0
    3.6279   -3.6491    0.0000 C   0  0  0  0  0  0
    2.2055   -3.6593    0.0000 C   0  0  0  0  0  0
    1.4966   -2.4863    0.0000 C   0  0  0  0  0  0
    2.1538   -1.2133    0.0000 C   0  0  0  0  0  0
   -0.5347    0.9460    0.0000 H   0  0  0  0  0  0
   -0.4472   -0.5716    0.8816 H   0  0  0  0  0  0
   -0.4472   -0.5715   -0.8816 H   0  0  0  0  0  0
    0.4329    2.5854    0.0000 H   0  0  0  0  0  0
    1.7188    4.6394    0.0000 H   0  0  0  0  0  0
    4.2158    4.5918   -0.0001 H   0  0  0  0  0  0
    5.4012    2.4232    0.0000 H   0  0  0  0  0  0
    5.3685    0.0049    0.0000 H   0  0  0  0  0  0
    5.3864   -2.4339    0.0000 H   0  0  0  0  0  0
    4.1739   -4.5878    0.0000 H   0  0  0  0  0  0
    1.6783   -4.6090    0.0000 H   0  0  0  0  0  0
    0.4136   -2.5286    0.0000 H   0  0  0  0  0  0
  1  2  1  0  0  0
  1 16  1  0  0  0
  1 17  1  0  0  0
  1 18  1  0  0  0
  2 15  1  0  0  0
  2  3  2  0  0  0
  3  8  1  0  0  0
  3  4  1  0  0  0
  4  5  2  0  0  0
  4 19  1  0  0  0
  5  6  1  0  0  0
  5 20  1  0  0  0
  6  7  2  0  0  0
  6 21  1  0  0  0
  7  8  1  0  0  0
  7 22  1  0  0  0
  8  9  2  0  0  0
  9 10  1  0  0  0
  9 23  1  0  0  0
 10 15  1  0  0  0
 10 11  2  0  0  0
 11 12  1  0  0  0
 11 24  1  0  0  0
 12 13  2  0  0  0
 12 25  1  0  0  0
 13 14  1  0  0  0
 13 26  1  0  0  0
 14 15  2  0  0  0
 14 27  1  0  0  0
M  END
>  <i_m_Spin_multiplicity> (1)
1

>  <s_j_Task> (1)
Single Point

>  <s_j_QM_Method> (1)
DFT(b3lyp-d3)

>  <s_j_QM_Basis> (1)
cc-pvtz(-f)

>  <i_j_Number_of_canonical_orbitals> (1)
439

>  <i_j_Geometry_convergence_category> (1)
0

>  <r_j_Gas_Phase_Energy> (1)
-579.035364801393

>  <r_j_Final_Energy> (1)
-579.035364801393

>  <r_j_HOMO> (1)
-0.197461269562194

>  <r_j_LUMO> (1)
-0.0712239419233083

>  <r_j_Polarizability> (1)
184.19855015771

>  <r_j_QM_Dipole_(debye)> (1)
0.350011912153444

>  <r_j_QM_Dipole_X_(debye)> (1)
-0.347004177521801

>  <r_j_QM_Dipole_Y_(debye)> (1)
-0.0457868863407763

>  <r_j_QM_Dipole_Z_(debye)> (1)
-2.17012764282894e-05

>  <r_j_Lowest_Frequency_(cm-1)> (1)
95.5001960565738

>  <r_j_Highest_Frequency_(cm-1)> (1)
3166.59484389961

>  <r_j_2nd_Lowest_Frequency_(cm-1)> (1)
130.034132210006

>  <i_j_Num_Negative_Frequencies> (1)
0

>  <r_j_Zero_Point_Energy_(kcal/mol)> (1)
138.646700015837

>  <r_j_Entropy_(cal/mol/K)_298.15K_1.00E+00atm> (1)
100.386718875026

>  <r_j_Enthalpy_(kcal/mol)_298.15K_1.00E+00atm> (1)
7.34292804012431

>  <r_j_Free_Energy_(kcal/mol)_298.15K_1.00E+00atm> (1)
-22.5873721924647

>  <r_j_Internal_Energy_(kcal/mol)_298.15K_1.00E+00atm> (1)
6.75044245129703

>  <r_j_Heat_Capacity_(cal/mol/K)_298.15K_1.00E+00atm> (1)
46.0374117795518

>  <r_j_ln(Q)_298.15K_1.00E+00atm> (1)
38.1230744146412

>  <r_j_Total_Internal_Energy_(au)_298.15K_1.00E+00atm> (1)
-578.803659704628

>  <r_j_Total_Enthalpy_(au)_298.15K_1.00E+00atm> (1)
-578.802715518736

>  <r_j_Total_Free_Energy_(au)_298.15K_1.00E+00atm> (1)
-578.850412488524

>  <r_lp_tautomer_probability> (1)
1

>  <r_epik_Ionization_Penalty> (1)
  0.0000

>  <r_epik_Ionization_Penalty_Charging> (1)
  0.0000

>  <r_epik_Ionization_Penalty_Neutral> (1)
  0.0000

>  <r_epik_State_Penalty> (1)
  0.0000

>  <r_epik_Charging_Adjusted_Penalty> (1)
0

>  <i_epik_Tot_Q> (1)
0

>  <i_epik_Tot_abs_Q> (1)
0

>  <s_lp_Force_Field> (1)
S-OPLS

>  <r_lp_Energy> (1)
34.0006

>  <b_lp_Chiralities_Consistent> (1)
1

$$$$
