13090_2-Nitropyrene
                    3D
 Schrodinger Suite 2021-3.
 28 31  0  0  1  0            999 V2000
   -7.0324   -0.0001    0.0000 C   0  0  0  0  0  0
   -6.3431    1.2108    0.0001 C   0  0  0  0  0  0
   -4.9400    1.2355    0.0000 C   0  0  0  0  0  0
   -4.2255    0.0001    0.0000 C   0  0  0  0  0  0
   -4.9398   -1.2353   -0.0001 C   0  0  0  0  0  0
   -6.3429   -1.2108   -0.0001 C   0  0  0  0  0  0
   -4.1930   -2.4629    0.0000 C   0  0  0  0  0  0
   -2.8328   -2.4654    0.0001 C   0  0  0  0  0  0
   -2.0863   -1.2369    0.0000 C   0  0  0  0  0  0
   -2.8006    0.0001    0.0000 C   0  0  0  0  0  0
   -2.0863    1.2371    0.0000 C   0  0  0  0  0  0
   -0.6863    1.2213   -0.0001 C   0  0  0  0  0  0
   -0.0199    0.0000    0.0000 C   0  0  0  0  0  0
   -0.6864   -1.2212    0.0000 C   0  0  0  0  0  0
    1.4534   -0.0002    0.0000 N   0  3  1  0  0  0
    2.0265   -1.0904    0.0000 O   0  0  0  0  0  0
    2.0267    1.0900    0.0000 O   0  5  0  0  0  0
   -2.8329    2.4656    0.0000 C   0  0  0  0  0  0
   -4.1931    2.4630    0.0001 C   0  0  0  0  0  0
   -8.1183   -0.0001    0.0000 H   0  0  0  0  0  0
   -6.8897    2.1497    0.0002 H   0  0  0  0  0  0
   -6.8894   -2.1498   -0.0003 H   0  0  0  0  0  0
   -4.7424   -3.3999    0.0000 H   0  0  0  0  0  0
   -2.2836   -3.4022    0.0002 H   0  0  0  0  0  0
   -0.1161    2.1419   -0.0002 H   0  0  0  0  0  0
   -0.1163   -2.1419    0.0000 H   0  0  0  0  0  0
   -2.2837    3.4023   -0.0001 H   0  0  0  0  0  0
   -4.7425    3.4001    0.0002 H   0  0  0  0  0  0
  1  6  1  0  0  0
  1  2  2  0  0  0
  1 20  1  0  0  0
  2  3  1  0  0  0
  2 21  1  0  0  0
  3 19  1  0  0  0
  3  4  2  0  0  0
  4 10  1  0  0  0
  4  5  1  0  0  0
  5  6  2  0  0  0
  5  7  1  0  0  0
  6 22  1  0  0  0
  7  8  2  0  0  0
  7 23  1  0  0  0
  8  9  1  0  0  0
  8 24  1  0  0  0
  9 14  1  0  0  0
  9 10  2  0  0  0
 10 11  1  0  0  0
 11 12  2  0  0  0
 11 18  1  0  0  0
 12 13  1  0  0  0
 12 25  1  0  0  0
 13 14  2  0  0  0
 13 15  1  0  0  0
 14 26  1  0  0  0
 15 16  2  0  0  0
 15 17  1  0  0  0
 18 19  2  0  0  0
 18 27  1  0  0  0
 19 28  1  0  0  0
M  END
>  <i_m_Spin_multiplicity> (1)
1

>  <s_j_Task> (1)
Single Point

>  <s_j_QM_Method> (1)
DFT(b3lyp-d3)

>  <s_j_QM_Basis> (1)
cc-pvtz(-f)

>  <i_j_Number_of_canonical_orbitals> (1)
501

>  <i_j_Geometry_convergence_category> (1)
0

>  <r_j_Gas_Phase_Energy> (1)
-820.545019672795

>  <r_j_Final_Energy> (1)
-820.545019672795

>  <r_j_HOMO> (1)
-0.224582304348082

>  <r_j_LUMO> (1)
-0.09885909178095

>  <r_j_Polarizability> (1)
212.464923618901

>  <r_j_QM_Dipole_(debye)> (1)
5.80184599818533

>  <r_j_QM_Dipole_X_(debye)> (1)
-5.80184368544691

>  <r_j_QM_Dipole_Y_(debye)> (1)
0.00517975119814335

>  <r_j_QM_Dipole_Z_(debye)> (1)
-8.04767603171696e-05

>  <r_j_Lowest_Frequency_(cm-1)> (1)
72.8138228739583

>  <r_j_Highest_Frequency_(cm-1)> (1)
3178.48010128752

>  <r_j_2nd_Lowest_Frequency_(cm-1)> (1)
90.9985933405754

>  <i_j_Num_Negative_Frequencies> (1)
0

>  <r_j_Zero_Point_Energy_(kcal/mol)> (1)
131.050028786224

>  <r_j_Entropy_(cal/mol/K)_298.15K_1.00E+00atm> (1)
106.872196410694

>  <r_j_Enthalpy_(kcal/mol)_298.15K_1.00E+00atm> (1)
8.28501301375945

>  <r_j_Free_Energy_(kcal/mol)_298.15K_1.00E+00atm> (1)
-23.578932346089

>  <r_j_Internal_Energy_(kcal/mol)_298.15K_1.00E+00atm> (1)
7.69252742493218

>  <r_j_Heat_Capacity_(cal/mol/K)_298.15K_1.00E+00atm> (1)
52.4843840276765

>  <r_j_ln(Q)_298.15K_1.00E+00atm> (1)
39.7966343666849

>  <r_j_Total_Internal_Energy_(au)_298.15K_1.00E+00atm> (1)
-820.323919334323

>  <r_j_Total_Enthalpy_(au)_298.15K_1.00E+00atm> (1)
-820.322975148431

>  <r_j_Total_Free_Energy_(au)_298.15K_1.00E+00atm> (1)
-820.373753577894

>  <r_lp_tautomer_probability> (1)
1

>  <r_epik_Ionization_Penalty> (1)
  0.0000

>  <r_epik_Ionization_Penalty_Charging> (1)
  0.0000

>  <r_epik_Ionization_Penalty_Neutral> (1)
  0.0000

>  <r_epik_State_Penalty> (1)
  0.0000

>  <r_epik_Charging_Adjusted_Penalty> (1)
0

>  <i_epik_Tot_Q> (1)
0

>  <i_epik_Tot_abs_Q> (1)
2

>  <s_lp_Force_Field> (1)
S-OPLS

>  <r_lp_Energy> (1)
41.7017

>  <b_lp_Chiralities_Consistent> (1)
1

$$$$
