13143_3-Methyl-3-buten-2-one
                    3D
 Schrodinger Suite 2021-3.
 14 13  0  0  1  0            999 V2000
   -0.6806   -1.3453    0.0003 C   0  0  0  0  0  0
   -0.0391    0.0268    0.0000 C   0  0  0  0  0  0
   -0.7765    1.1477   -0.0001 C   0  0  0  0  0  0
    1.4634    0.0584   -0.0001 C   0  0  0  0  0  0
    2.0983   -0.9869   -0.0005 O   0  0  0  0  0  0
    2.2343    1.3727    0.0003 C   0  0  0  0  0  0
    0.0832   -2.1231    0.0004 H   0  0  0  0  0  0
   -1.3136   -1.4786   -0.8828 H   0  0  0  0  0  0
   -1.3135   -1.4781    0.8836 H   0  0  0  0  0  0
   -1.8622    1.0985    0.0001 H   0  0  0  0  0  0
   -0.3474    2.1422   -0.0002 H   0  0  0  0  0  0
    1.6290    2.2778    0.0006 H   0  0  0  0  0  0
    2.8848    1.3807   -0.8791 H   0  0  0  0  0  0
    2.8848    1.3801    0.8798 H   0  0  0  0  0  0
  1  2  1  0  0  0
  1  7  1  0  0  0
  1  8  1  0  0  0
  1  9  1  0  0  0
  2  3  2  0  0  0
  2  4  1  0  0  0
  3 10  1  0  0  0
  3 11  1  0  0  0
  4  5  2  0  0  0
  4  6  1  0  0  0
  6 12  1  0  0  0
  6 13  1  0  0  0
  6 14  1  0  0  0
M  END
>  <i_m_Spin_multiplicity> (1)
1

>  <s_j_Task> (1)
Single Point

>  <s_j_QM_Method> (1)
DFT(b3lyp-d3)

>  <s_j_QM_Basis> (1)
cc-pvtz(-f)

>  <i_j_Number_of_canonical_orbitals> (1)
208

>  <i_j_Geometry_convergence_category> (1)
0

>  <r_j_Gas_Phase_Energy> (1)
-270.655559680932

>  <r_j_Final_Energy> (1)
-270.655559680932

>  <r_j_HOMO> (1)
-0.25714496411693

>  <r_j_LUMO> (1)
-0.0653464998030707

>  <r_j_Polarizability> (1)
62.3993771863116

>  <r_j_QM_Dipole_(debye)> (1)
2.79782616340241

>  <r_j_QM_Dipole_X_(debye)> (1)
-1.69597037650291

>  <r_j_QM_Dipole_Y_(debye)> (1)
2.22519989516581

>  <r_j_QM_Dipole_Z_(debye)> (1)
0.00107200639053687

>  <r_j_Lowest_Frequency_(cm-1)> (1)
76.0382807635735

>  <r_j_Highest_Frequency_(cm-1)> (1)
3194.21275234085

>  <r_j_2nd_Lowest_Frequency_(cm-1)> (1)
106.110902918601

>  <i_j_Num_Negative_Frequencies> (1)
0

>  <r_j_Zero_Point_Energy_(kcal/mol)> (1)
73.4200855005441

>  <r_j_Entropy_(cal/mol/K)_298.15K_1.00E+00atm> (1)
81.8456034189726

>  <r_j_Enthalpy_(kcal/mol)_298.15K_1.00E+00atm> (1)
5.02830460111299

>  <r_j_Free_Energy_(kcal/mol)_298.15K_1.00E+00atm> (1)
-19.3739620582537

>  <r_j_Internal_Energy_(kcal/mol)_298.15K_1.00E+00atm> (1)
4.43581901228572

>  <r_j_Heat_Capacity_(cal/mol/K)_298.15K_1.00E+00atm> (1)
24.6218147795631

>  <r_j_ln(Q)_298.15K_1.00E+00atm> (1)
32.6994654783101

>  <r_j_Total_Internal_Energy_(au)_298.15K_1.00E+00atm> (1)
-270.531488398768

>  <r_j_Total_Enthalpy_(au)_298.15K_1.00E+00atm> (1)
-270.530544212876

>  <r_j_Total_Free_Energy_(au)_298.15K_1.00E+00atm> (1)
-270.569431700358

>  <r_lp_tautomer_probability> (1)
1

>  <r_epik_Ionization_Penalty> (1)
  0.0000

>  <r_epik_Ionization_Penalty_Charging> (1)
  0.0000

>  <r_epik_Ionization_Penalty_Neutral> (1)
  0.0000

>  <r_epik_State_Penalty> (1)
  0.0000

>  <r_epik_Charging_Adjusted_Penalty> (1)
0

>  <i_epik_Tot_Q> (1)
0

>  <i_epik_Tot_abs_Q> (1)
0

>  <s_lp_Force_Field> (1)
S-OPLS

>  <r_lp_Energy> (1)
3.68486

>  <b_lp_Chiralities_Consistent> (1)
1

$$$$
