13159_3-ethyl-2-pentene
                    3D
 Schrodinger Suite 2021-3.
 21 20  0  0  1  0            999 V2000
   -0.5486    1.4270   -0.1995 C   0  0  0  0  0  0
    0.0508    0.0481    0.1294 C   0  0  0  0  0  0
    1.5653    0.0300    0.0614 C   0  0  0  0  0  0
    2.3013    0.0321    1.1824 C   0  0  0  0  0  0
    3.7998    0.0140    1.2989 C   0  0  0  0  0  0
    2.1604   -0.0248   -1.3328 C   0  0  0  0  0  0
    2.3560   -1.4729   -1.8162 C   0  0  0  0  0  0
   -1.6431    1.3986   -0.1696 H   0  0  0  0  0  0
   -0.2526    1.7682   -1.1972 H   0  0  0  0  0  0
   -0.2053    2.1753    0.5220 H   0  0  0  0  0  0
   -0.2814   -0.2582    1.1281 H   0  0  0  0  0  0
   -0.3549   -0.6936   -0.5734 H   0  0  0  0  0  0
    1.7695    0.0407    2.1351 H   0  0  0  0  0  0
    4.1353   -0.8716    1.8543 H   0  0  0  0  0  0
    4.1627    0.8865    1.8577 H   0  0  0  0  0  0
    4.3038    0.0040    0.3294 H   0  0  0  0  0  0
    1.4988    0.4992   -2.0336 H   0  0  0  0  0  0
    3.1188    0.5032   -1.3714 H   0  0  0  0  0  0
    2.7368   -1.5026   -2.8426 H   0  0  0  0  0  0
    1.4116   -2.0273   -1.7917 H   0  0  0  0  0  0
    3.0650   -2.0017   -1.1712 H   0  0  0  0  0  0
  1  2  1  0  0  0
  1  8  1  0  0  0
  1  9  1  0  0  0
  1 10  1  0  0  0
  2  3  1  0  0  0
  2 11  1  0  0  0
  2 12  1  0  0  0
  3  4  2  0  0  0
  3  6  1  0  0  0
  4  5  1  0  0  0
  4 13  1  0  0  0
  5 14  1  0  0  0
  5 15  1  0  0  0
  5 16  1  0  0  0
  6  7  1  0  0  0
  6 17  1  0  0  0
  6 18  1  0  0  0
  7 19  1  0  0  0
  7 20  1  0  0  0
  7 21  1  0  0  0
M  END
>  <i_m_Spin_multiplicity> (1)
1

>  <s_j_Task> (1)
Single Point

>  <s_j_QM_Method> (1)
DFT(b3lyp-d3)

>  <s_j_QM_Basis> (1)
cc-pvtz(-f)

>  <i_j_Number_of_canonical_orbitals> (1)
285

>  <i_j_Geometry_convergence_category> (1)
0

>  <r_j_Gas_Phase_Energy> (1)
-275.278579811309

>  <r_j_Final_Energy> (1)
-275.278579811309

>  <r_j_HOMO> (1)
-0.234949607016417

>  <r_j_LUMO> (1)
0.0159055854957568

>  <r_j_Polarizability> (1)
86.9359483800484

>  <r_j_QM_Dipole_(debye)> (1)
0.175885264129754

>  <r_j_QM_Dipole_X_(debye)> (1)
0.0618916233523998

>  <r_j_QM_Dipole_Y_(debye)> (1)
-0.0393470025605578

>  <r_j_QM_Dipole_Z_(debye)> (1)
-0.159865150943842

>  <r_j_Lowest_Frequency_(cm-1)> (1)
95.0999408217276

>  <r_j_Highest_Frequency_(cm-1)> (1)
3077.52386683321

>  <r_j_2nd_Lowest_Frequency_(cm-1)> (1)
114.38657549238

>  <i_j_Num_Negative_Frequencies> (1)
0

>  <r_j_Zero_Point_Energy_(kcal/mol)> (1)
121.121864115562

>  <r_j_Entropy_(cal/mol/K)_298.15K_1.00E+00atm> (1)
89.3729547298183

>  <r_j_Enthalpy_(kcal/mol)_298.15K_1.00E+00atm> (1)
6.11219106363247

>  <r_j_Free_Energy_(kcal/mol)_298.15K_1.00E+00atm> (1)
-20.5343553890629

>  <r_j_Internal_Energy_(kcal/mol)_298.15K_1.00E+00atm> (1)
5.5197054748052

>  <r_j_Heat_Capacity_(cal/mol/K)_298.15K_1.00E+00atm> (1)
32.6218703870033

>  <r_j_ln(Q)_298.15K_1.00E+00atm> (1)
34.6579828712917

>  <r_j_Total_Internal_Energy_(au)_298.15K_1.00E+00atm> (1)
-275.076763622638

>  <r_j_Total_Enthalpy_(au)_298.15K_1.00E+00atm> (1)
-275.075819436746

>  <r_j_Total_Free_Energy_(au)_298.15K_1.00E+00atm> (1)
-275.118283411756

>  <r_lp_tautomer_probability> (1)
1

>  <r_epik_Ionization_Penalty> (1)
  0.0000

>  <r_epik_Ionization_Penalty_Charging> (1)
  0.0000

>  <r_epik_Ionization_Penalty_Neutral> (1)
  0.0000

>  <r_epik_State_Penalty> (1)
  0.0000

>  <r_epik_Charging_Adjusted_Penalty> (1)
0

>  <i_epik_Tot_Q> (1)
0

>  <i_epik_Tot_abs_Q> (1)
0

>  <s_lp_Force_Field> (1)
S-OPLS

>  <r_lp_Energy> (1)
-0.700802

>  <b_lp_Chiralities_Consistent> (1)
1

$$$$
