13185_Tetradecanedioic acid
                    3D
 Schrodinger Suite 2021-3.
 42 41  0  0  1  0            999 V2000
    0.1328    0.1523    0.2597 C   0  0  0  0  0  0
    1.6659    0.0894    0.2446 C   0  0  0  0  0  0
    2.2100   -1.3445    0.1970 C   0  0  0  0  0  0
    3.7398   -1.4498    0.1479 C   0  0  0  0  0  0
    4.2480   -2.8958    0.0573 C   0  0  0  0  0  0
    5.7745   -3.0338   -0.0097 C   0  0  0  0  0  0
    6.2618   -4.4793   -0.1191 C   0  0  0  0  0  0
    7.8275   -4.6560   -0.1972 C   0  0  0  0  0  0
    8.2092   -5.8494   -0.2930 O   0  0  0  0  0  0
    8.5042   -3.5959   -0.1549 O   0  5  0  0  0  0
   -0.4517    1.5708    0.2403 C   0  0  0  0  0  0
   -1.9859    1.5923    0.2008 C   0  0  0  0  0  0
   -2.6017    2.9929    0.1043 C   0  0  0  0  0  0
   -4.1317    2.9746   -0.0042 C   0  0  0  0  0  0
   -4.7464    4.3716   -0.1305 C   0  0  0  0  0  0
   -4.6543    5.2683    1.1649 C   0  0  0  0  0  0
   -5.0715    6.4420    1.0120 O   0  0  0  0  0  0
   -4.1964    4.7081    2.1973 O   0  5  0  0  0  0
   -0.2532   -0.4029   -0.6086 H   0  0  0  0  0  0
   -0.2423   -0.3827    1.1448 H   0  0  0  0  0  0
    2.0432    0.6488   -0.6242 H   0  0  0  0  0  0
    2.0641    0.6054    1.1303 H   0  0  0  0  0  0
    1.8373   -1.9011    1.0699 H   0  0  0  0  0  0
    1.7890   -1.8553   -0.6821 H   0  0  0  0  0  0
    4.1161   -0.8792   -0.7141 H   0  0  0  0  0  0
    4.1695   -0.9662    1.0375 H   0  0  0  0  0  0
    3.8664   -3.4630    0.9207 H   0  0  0  0  0  0
    3.8003   -3.3734   -0.8285 H   0  0  0  0  0  0
    6.1680   -2.4650   -0.8619 H   0  0  0  0  0  0
    6.2359   -2.5720    0.8725 H   0  0  0  0  0  0
    5.9005   -5.0702    0.7366 H   0  0  0  0  0  0
    5.8263   -4.9626   -1.0073 H   0  0  0  0  0  0
   -0.0997    2.1291    1.1194 H   0  0  0  0  0  0
   -0.0596    2.1096   -0.6353 H   0  0  0  0  0  0
   -2.3233    0.9863   -0.6556 H   0  0  0  0  0  0
   -2.3765    1.0864    1.0962 H   0  0  0  0  0  0
   -2.3504    3.5900    0.9875 H   0  0  0  0  0  0
   -2.1791    3.5109   -0.7718 H   0  0  0  0  0  0
   -4.4259    2.3390   -0.8578 H   0  0  0  0  0  0
   -4.5330    2.5133    0.9067 H   0  0  0  0  0  0
   -4.2859    4.9262   -0.9615 H   0  0  0  0  0  0
   -5.8132    4.2918   -0.3875 H   0  0  0  0  0  0
  1  2  1  0  0  0
  1 11  1  0  0  0
  1 19  1  0  0  0
  1 20  1  0  0  0
  2  3  1  0  0  0
  2 21  1  0  0  0
  2 22  1  0  0  0
  3  4  1  0  0  0
  3 23  1  0  0  0
  3 24  1  0  0  0
  4  5  1  0  0  0
  4 25  1  0  0  0
  4 26  1  0  0  0
  5  6  1  0  0  0
  5 27  1  0  0  0
  5 28  1  0  0  0
  6  7  1  0  0  0
  6 29  1  0  0  0
  6 30  1  0  0  0
  7  8  1  0  0  0
  7 31  1  0  0  0
  7 32  1  0  0  0
  8  9  2  0  0  0
  8 10  1  0  0  0
 11 12  1  0  0  0
 11 33  1  0  0  0
 11 34  1  0  0  0
 12 13  1  0  0  0
 12 35  1  0  0  0
 12 36  1  0  0  0
 13 14  1  0  0  0
 13 37  1  0  0  0
 13 38  1  0  0  0
 14 15  1  0  0  0
 14 39  1  0  0  0
 14 40  1  0  0  0
 15 16  1  0  0  0
 15 41  1  0  0  0
 15 42  1  0  0  0
 16 17  2  0  0  0
 16 18  1  0  0  0
M  END
>  <i_m_Spin_multiplicity> (1)
1

>  <s_j_Task> (1)
Single Point

>  <s_j_QM_Method> (1)
DFT(b3lyp-d3)

>  <s_j_QM_Basis> (1)
cc-pvtz(-f)

>  <i_j_Number_of_canonical_orbitals> (1)
625

>  <i_j_Geometry_convergence_category> (1)
0

>  <r_j_Gas_Phase_Energy> (1)
-849.270660885265

>  <r_j_Final_Energy> (1)
-849.270660885265

>  <r_j_HOMO> (1)
0.0254180165815492

>  <r_j_LUMO> (1)
0.168296431871859

>  <r_j_Polarizability> (1)
193.153769671674

>  <r_j_QM_Dipole_(debye)> (1)
7.1187226262538

>  <r_j_QM_Dipole_X_(debye)> (1)
-6.18651511995483

>  <r_j_QM_Dipole_Y_(debye)> (1)
-1.70035618166065

>  <r_j_QM_Dipole_Z_(debye)> (1)
-3.08415812752793

>  <r_j_Lowest_Frequency_(cm-1)> (1)
31.3078020969492

>  <r_j_Highest_Frequency_(cm-1)> (1)
3034.4128635073

>  <r_j_2nd_Lowest_Frequency_(cm-1)> (1)
38.6456937261015

>  <i_j_Num_Negative_Frequencies> (1)
0

>  <r_j_Zero_Point_Energy_(kcal/mol)> (1)
227.443040727867

>  <r_j_Entropy_(cal/mol/K)_298.15K_1.00E+00atm> (1)
144.013246790346

>  <r_j_Enthalpy_(kcal/mol)_298.15K_1.00E+00atm> (1)
12.9494334552694

>  <r_j_Free_Energy_(kcal/mol)_298.15K_1.00E+00atm> (1)
-29.9881160752721

>  <r_j_Internal_Energy_(kcal/mol)_298.15K_1.00E+00atm> (1)
12.3569478664421

>  <r_j_Heat_Capacity_(cal/mol/K)_298.15K_1.00E+00atm> (1)
73.2015252995853

>  <r_j_ln(Q)_298.15K_1.00E+00atm> (1)
50.6140852043821

>  <r_j_Total_Internal_Energy_(au)_298.15K_1.00E+00atm> (1)
-848.888515276221

>  <r_j_Total_Enthalpy_(au)_298.15K_1.00E+00atm> (1)
-848.887571090329

>  <r_j_Total_Free_Energy_(au)_298.15K_1.00E+00atm> (1)
-848.955996431432

>  <r_epik_Ionization_Penalty> (1)
  0.0097

>  <r_epik_Ionization_Penalty_Charging> (1)
  0.0097

>  <r_epik_Ionization_Penalty_Neutral> (1)
  0.0000

>  <r_epik_State_Penalty> (1)
  0.0074

>  <r_epik_Charging_Adjusted_Penalty> (1)
0.0170680524587756

>  <i_epik_Tot_Q> (1)
-2

>  <i_epik_Tot_abs_Q> (1)
2

>  <s_lp_Force_Field> (1)
S-OPLS

>  <r_lp_Energy> (1)
9.170783

>  <b_lp_Chiralities_Consistent> (1)
1

$$$$
