13211_4-methylindan
                    3D
 Schrodinger Suite 2021-3.
 22 23  0  0  1  0            999 V2000
   -0.0269    0.0123    0.0199 C   0  0  0  0  0  0
    1.4821   -0.0068    0.0232 C   0  0  0  0  0  0
    2.2173    1.1827   -0.0255 C   0  0  0  0  0  0
    1.6982    2.6043   -0.0731 C   0  0  0  0  0  0
    2.9403    3.4170   -0.5185 C   0  0  0  0  0  0
    4.1559    2.5882   -0.0340 C   0  0  0  0  0  0
    3.6171    1.1734   -0.0112 C   0  0  0  0  0  0
    4.3190   -0.0281    0.0441 C   0  0  0  0  0  0
    3.5972   -1.2232    0.0814 C   0  0  0  0  0  0
    2.2004   -1.2091    0.0721 C   0  0  0  0  0  0
   -0.4200    0.5720    0.8772 H   0  0  0  0  0  0
   -0.4417   -0.9987    0.0597 H   0  0  0  0  0  0
   -0.4173    0.5006   -0.8812 H   0  0  0  0  0  0
    0.8451    2.7308   -0.7486 H   0  0  0  0  0  0
    1.3556    2.9177    0.9240 H   0  0  0  0  0  0
    2.9572    3.4719   -1.6126 H   0  0  0  0  0  0
    2.9410    4.4422   -0.1377 H   0  0  0  0  0  0
    5.0364    2.7054   -0.6747 H   0  0  0  0  0  0
    4.4579    2.8916    0.9784 H   0  0  0  0  0  0
    5.4058   -0.0378    0.0528 H   0  0  0  0  0  0
    4.1233   -2.1733    0.1154 H   0  0  0  0  0  0
    1.6566   -2.1498    0.1011 H   0  0  0  0  0  0
  1  2  1  0  0  0
  1 11  1  0  0  0
  1 12  1  0  0  0
  1 13  1  0  0  0
  2 10  1  0  0  0
  2  3  2  0  0  0
  3  7  1  0  0  0
  3  4  1  0  0  0
  4  5  1  0  0  0
  4 14  1  0  0  0
  4 15  1  0  0  0
  5  6  1  0  0  0
  5 16  1  0  0  0
  5 17  1  0  0  0
  6  7  1  0  0  0
  6 18  1  0  0  0
  6 19  1  0  0  0
  7  8  2  0  0  0
  8  9  1  0  0  0
  8 20  1  0  0  0
  9 10  2  0  0  0
  9 21  1  0  0  0
 10 22  1  0  0  0
M  END
>  <i_m_Spin_multiplicity> (1)
1

>  <s_j_Task> (1)
Single Point

>  <s_j_QM_Method> (1)
DFT(b3lyp-d3)

>  <s_j_QM_Basis> (1)
cc-pvtz(-f)

>  <i_j_Number_of_canonical_orbitals> (1)
331

>  <i_j_Geometry_convergence_category> (1)
0

>  <r_j_Gas_Phase_Energy> (1)
-388.442091270491

>  <r_j_Final_Energy> (1)
-388.442091270491

>  <r_j_HOMO> (1)
-0.230179987776382

>  <r_j_LUMO> (1)
-0.00421065002607998

>  <r_j_Polarizability> (1)
110.077688679971

>  <r_j_QM_Dipole_(debye)> (1)
0.70240008676783

>  <r_j_QM_Dipole_X_(debye)> (1)
-0.33545452411864

>  <r_j_QM_Dipole_Y_(debye)> (1)
0.617117750451479

>  <r_j_QM_Dipole_Z_(debye)> (1)
0.00135137615009284

>  <r_j_Lowest_Frequency_(cm-1)> (1)
164.474407591012

>  <r_j_Highest_Frequency_(cm-1)> (1)
3138.15238453055

>  <r_j_2nd_Lowest_Frequency_(cm-1)> (1)
175.459981518477

>  <i_j_Num_Negative_Frequencies> (1)
0

>  <r_j_Zero_Point_Energy_(kcal/mol)> (1)
119.885454141853

>  <r_j_Entropy_(cal/mol/K)_298.15K_1.00E+00atm> (1)
87.7697208249156

>  <r_j_Enthalpy_(kcal/mol)_298.15K_1.00E+00atm> (1)
5.75329273484216

>  <r_j_Free_Energy_(kcal/mol)_298.15K_1.00E+00atm> (1)
-20.4152495291064

>  <r_j_Internal_Energy_(kcal/mol)_298.15K_1.00E+00atm> (1)
5.16080714601488

>  <r_j_Heat_Capacity_(cal/mol/K)_298.15K_1.00E+00atm> (1)
33.7824262876853

>  <r_j_ln(Q)_298.15K_1.00E+00atm> (1)
34.4569554333211

>  <r_j_Total_Internal_Energy_(au)_298.15K_1.00E+00atm> (1)
-388.242817367441

>  <r_j_Total_Enthalpy_(au)_298.15K_1.00E+00atm> (1)
-388.241873181548

>  <r_j_Total_Free_Energy_(au)_298.15K_1.00E+00atm> (1)
-388.283575408391

>  <r_lp_tautomer_probability> (1)
1

>  <r_epik_Ionization_Penalty> (1)
  0.0000

>  <r_epik_Ionization_Penalty_Charging> (1)
  0.0000

>  <r_epik_Ionization_Penalty_Neutral> (1)
  0.0000

>  <r_epik_State_Penalty> (1)
  0.0000

>  <r_epik_Charging_Adjusted_Penalty> (1)
0

>  <i_epik_Tot_Q> (1)
0

>  <i_epik_Tot_abs_Q> (1)
0

>  <s_lp_Force_Field> (1)
S-OPLS

>  <r_lp_Energy> (1)
12.0675

>  <b_lp_Chiralities_Consistent> (1)
1

$$$$
