13258_3-methylphenanthrene
                    3D
 Schrodinger Suite 2021-3.
 27 29  0  0  1  0            999 V2000
   -0.0242   -0.0061    0.0001 C   0  0  0  0  0  0
    1.4856    0.0086    0.0000 C   0  0  0  0  0  0
    2.1985    1.1956    0.0001 C   0  0  0  0  0  0
    3.6132    1.2304    0.0000 C   0  0  0  0  0  0
    4.3134   -0.0094    0.0000 C   0  0  0  0  0  0
    3.5772   -1.2171   -0.0001 C   0  0  0  0  0  0
    2.1997   -1.2115   -0.0001 C   0  0  0  0  0  0
    5.7471   -0.0210    0.0001 C   0  0  0  0  0  0
    6.4599    1.1365    0.0001 C   0  0  0  0  0  0
    5.8010    2.4103    0.0001 C   0  0  0  0  0  0
    6.5505    3.6100    0.0000 C   0  0  0  0  0  0
    5.9265    4.8408   -0.0001 C   0  0  0  0  0  0
    4.5209    4.9066   -0.0001 C   0  0  0  0  0  0
    3.7677    3.7481    0.0000 C   0  0  0  0  0  0
    4.3755    2.4706    0.0000 C   0  0  0  0  0  0
   -0.4392    1.0056    0.0001 H   0  0  0  0  0  0
   -0.4136   -0.5298    0.8811 H   0  0  0  0  0  0
   -0.4137   -0.5297   -0.8810 H   0  0  0  0  0  0
    1.6394    2.1253    0.0001 H   0  0  0  0  0  0
    4.1206   -2.1587   -0.0002 H   0  0  0  0  0  0
    1.6514   -2.1502   -0.0003 H   0  0  0  0  0  0
    6.2554   -0.9813    0.0001 H   0  0  0  0  0  0
    7.5466    1.1164    0.0002 H   0  0  0  0  0  0
    7.6357    3.5451    0.0000 H   0  0  0  0  0  0
    6.5144    5.7538   -0.0001 H   0  0  0  0  0  0
    4.0237    5.8723   -0.0001 H   0  0  0  0  0  0
    2.6867    3.8320    0.0000 H   0  0  0  0  0  0
  1  2  1  0  0  0
  1 16  1  0  0  0
  1 17  1  0  0  0
  1 18  1  0  0  0
  2  7  1  0  0  0
  2  3  2  0  0  0
  3  4  1  0  0  0
  3 19  1  0  0  0
  4 15  1  0  0  0
  4  5  2  0  0  0
  5  6  1  0  0  0
  5  8  1  0  0  0
  6  7  2  0  0  0
  6 20  1  0  0  0
  7 21  1  0  0  0
  8  9  2  0  0  0
  8 22  1  0  0  0
  9 10  1  0  0  0
  9 23  1  0  0  0
 10 15  1  0  0  0
 10 11  2  0  0  0
 11 12  1  0  0  0
 11 24  1  0  0  0
 12 13  2  0  0  0
 12 25  1  0  0  0
 13 14  1  0  0  0
 13 26  1  0  0  0
 14 15  2  0  0  0
 14 27  1  0  0  0
M  END
>  <i_m_Spin_multiplicity> (1)
1

>  <s_j_Task> (1)
Single Point

>  <s_j_QM_Method> (1)
DFT(b3lyp-d3)

>  <s_j_QM_Basis> (1)
cc-pvtz(-f)

>  <i_j_Number_of_canonical_orbitals> (1)
439

>  <i_j_Geometry_convergence_category> (1)
0

>  <r_j_Gas_Phase_Energy> (1)
-579.048783074998

>  <r_j_Final_Energy> (1)
-579.048783074998

>  <r_j_HOMO> (1)
-0.207278970902521

>  <r_j_LUMO> (1)
-0.0368577801788635

>  <r_j_Polarizability> (1)
178.820489685858

>  <r_j_QM_Dipole_(debye)> (1)
0.535628055908793

>  <r_j_QM_Dipole_X_(debye)> (1)
-0.50470328722614

>  <r_j_QM_Dipole_Y_(debye)> (1)
-0.179365555458764

>  <r_j_QM_Dipole_Z_(debye)> (1)
-6.0454366586438e-05

>  <r_j_Lowest_Frequency_(cm-1)> (1)
99.0231884944823

>  <r_j_Highest_Frequency_(cm-1)> (1)
3158.6525290964

>  <r_j_2nd_Lowest_Frequency_(cm-1)> (1)
119.726529387296

>  <i_j_Num_Negative_Frequencies> (1)
0

>  <r_j_Zero_Point_Energy_(kcal/mol)> (1)
138.629750426171

>  <r_j_Entropy_(cal/mol/K)_298.15K_1.00E+00atm> (1)
100.916341833368

>  <r_j_Enthalpy_(kcal/mol)_298.15K_1.00E+00atm> (1)
7.38207020307521

>  <r_j_Free_Energy_(kcal/mol)_298.15K_1.00E+00atm> (1)
-22.7061371145434

>  <r_j_Internal_Energy_(kcal/mol)_298.15K_1.00E+00atm> (1)
6.78958461424794

>  <r_j_Heat_Capacity_(cal/mol/K)_298.15K_1.00E+00atm> (1)
45.9682495474573

>  <r_j_ln(Q)_298.15K_1.00E+00atm> (1)
38.3235264160372

>  <r_j_Total_Internal_Energy_(au)_298.15K_1.00E+00atm> (1)
-578.817042612116

>  <r_j_Total_Enthalpy_(au)_298.15K_1.00E+00atm> (1)
-578.816098426224

>  <r_j_Total_Free_Energy_(au)_298.15K_1.00E+00atm> (1)
-578.864047036972

>  <r_lp_tautomer_probability> (1)
1

>  <r_epik_Ionization_Penalty> (1)
  0.0000

>  <r_epik_Ionization_Penalty_Charging> (1)
  0.0000

>  <r_epik_Ionization_Penalty_Neutral> (1)
  0.0000

>  <r_epik_State_Penalty> (1)
  0.0000

>  <r_epik_Charging_Adjusted_Penalty> (1)
0

>  <i_epik_Tot_Q> (1)
0

>  <i_epik_Tot_abs_Q> (1)
0

>  <s_lp_Force_Field> (1)
S-OPLS

>  <r_lp_Energy> (1)
28.6541

>  <b_lp_Chiralities_Consistent> (1)
1

$$$$
