13256_C-methylphenanthrene
                    3D
 Schrodinger Suite 2021-3.
 27 29  0  0  1  0            999 V2000
   -0.0264   -0.1627    0.2744 C   0  0  0  0  0  0
    1.4678   -0.0244    0.0644 C   0  0  0  0  0  0
    2.1768    1.2216   -0.0094 C   0  0  0  0  0  0
    3.6097    1.1553   -0.0305 C   0  0  0  0  0  0
    4.2818   -0.0849   -0.0969 C   0  0  0  0  0  0
    3.5755   -1.2659   -0.1035 C   0  0  0  0  0  0
    2.1796   -1.2188    0.0033 C   0  0  0  0  0  0
    4.4003    2.3495    0.0509 C   0  0  0  0  0  0
    3.8248    3.5721    0.1462 C   0  0  0  0  0  0
    2.4013    3.7131    0.0839 C   0  0  0  0  0  0
    1.8355    5.0087    0.0935 C   0  0  0  0  0  0
    0.4781    5.2028   -0.0549 C   0  0  0  0  0  0
   -0.3480    4.0837   -0.2406 C   0  0  0  0  0  0
    0.1815    2.8050   -0.2347 C   0  0  0  0  0  0
    1.5647    2.5560   -0.0386 C   0  0  0  0  0  0
   -0.3932    0.5090    1.0553 H   0  0  0  0  0  0
   -0.2643   -1.1852    0.5788 H   0  0  0  0  0  0
   -0.6011    0.0398   -0.6365 H   0  0  0  0  0  0
    5.3679   -0.0870   -0.1297 H   0  0  0  0  0  0
    4.0874   -2.2220   -0.1563 H   0  0  0  0  0  0
    1.6259   -2.1522    0.0576 H   0  0  0  0  0  0
    5.4821    2.2455    0.0576 H   0  0  0  0  0  0
    4.4318    4.4687    0.2355 H   0  0  0  0  0  0
    2.5022    5.8600    0.2032 H   0  0  0  0  0  0
    0.0589    6.2045   -0.0512 H   0  0  0  0  0  0
   -1.4140    4.2160   -0.4021 H   0  0  0  0  0  0
   -0.4958    1.9902   -0.4203 H   0  0  0  0  0  0
  1  2  1  0  0  0
  1 16  1  0  0  0
  1 17  1  0  0  0
  1 18  1  0  0  0
  2  7  1  0  0  0
  2  3  2  0  0  0
  3 15  1  0  0  0
  3  4  1  0  0  0
  4  5  2  0  0  0
  4  8  1  0  0  0
  5  6  1  0  0  0
  5 19  1  0  0  0
  6  7  2  0  0  0
  6 20  1  0  0  0
  7 21  1  0  0  0
  8  9  2  0  0  0
  8 22  1  0  0  0
  9 10  1  0  0  0
  9 23  1  0  0  0
 10 15  1  0  0  0
 10 11  2  0  0  0
 11 12  1  0  0  0
 11 24  1  0  0  0
 12 13  2  0  0  0
 12 25  1  0  0  0
 13 14  1  0  0  0
 13 26  1  0  0  0
 14 15  2  0  0  0
 14 27  1  0  0  0
M  END
>  <i_m_Spin_multiplicity> (1)
1

>  <s_j_Task> (1)
Single Point

>  <s_j_QM_Method> (1)
DFT(b3lyp-d3)

>  <s_j_QM_Basis> (1)
cc-pvtz(-f)

>  <i_j_Number_of_canonical_orbitals> (1)
439

>  <i_j_Geometry_convergence_category> (1)
0

>  <r_j_Gas_Phase_Energy> (1)
-579.03817406528

>  <r_j_Final_Energy> (1)
-579.03817406528

>  <r_j_HOMO> (1)
-0.204477928373484

>  <r_j_LUMO> (1)
-0.0364735630841446

>  <r_j_Polarizability> (1)
176.353283614633

>  <r_j_QM_Dipole_(debye)> (1)
0.324279569622966

>  <r_j_QM_Dipole_X_(debye)> (1)
-0.266338163137751

>  <r_j_QM_Dipole_Y_(debye)> (1)
-0.18185976627519

>  <r_j_QM_Dipole_Z_(debye)> (1)
0.033885801474927

>  <r_j_Lowest_Frequency_(cm-1)> (1)
80.0153279911974

>  <r_j_Highest_Frequency_(cm-1)> (1)
3250.5965440453

>  <r_j_2nd_Lowest_Frequency_(cm-1)> (1)
115.25848982948

>  <i_j_Num_Negative_Frequencies> (1)
0

>  <r_j_Zero_Point_Energy_(kcal/mol)> (1)
139.031531578277

>  <r_j_Entropy_(cal/mol/K)_298.15K_1.00E+00atm> (1)
99.3178303504622

>  <r_j_Enthalpy_(kcal/mol)_298.15K_1.00E+00atm> (1)
7.19263338427523

>  <r_j_Free_Energy_(kcal/mol)_298.15K_1.00E+00atm> (1)
-22.4189777347151

>  <r_j_Internal_Energy_(kcal/mol)_298.15K_1.00E+00atm> (1)
6.60014779544796

>  <r_j_Heat_Capacity_(cal/mol/K)_298.15K_1.00E+00atm> (1)
45.566308624048

>  <r_j_ln(Q)_298.15K_1.00E+00atm> (1)
37.8388574464565

>  <r_j_Total_Internal_Energy_(au)_298.15K_1.00E+00atm> (1)
-578.806095210161

>  <r_j_Total_Enthalpy_(au)_298.15K_1.00E+00atm> (1)
-578.805151024269

>  <r_j_Total_Free_Energy_(au)_298.15K_1.00E+00atm> (1)
-578.852340130625

>  <r_lp_tautomer_probability> (1)
1

>  <r_epik_Ionization_Penalty> (1)
  0.0000

>  <r_epik_Ionization_Penalty_Charging> (1)
  0.0000

>  <r_epik_Ionization_Penalty_Neutral> (1)
  0.0000

>  <r_epik_State_Penalty> (1)
  0.0000

>  <r_epik_Charging_Adjusted_Penalty> (1)
0

>  <i_epik_Tot_Q> (1)
0

>  <i_epik_Tot_abs_Q> (1)
0

>  <s_lp_Force_Field> (1)
S-OPLS

>  <r_lp_Energy> (1)
52.7936

>  <b_lp_Chiralities_Consistent> (1)
1

$$$$
