13297142_Ethyl hexacosanate
                    3D
 Schrodinger Suite 2021-3.
 86 85  0  0  1  0            999 V2000
  -12.7862   11.1318   -0.2306 C   0  0  0  0  0  0
  -12.2908    9.6844   -0.1578 C   0  0  0  0  0  0
  -10.7682    9.5611   -0.2926 C   0  0  0  0  0  0
  -10.2687    8.1138   -0.2200 C   0  0  0  0  0  0
   -8.7473    7.9786   -0.3521 C   0  0  0  0  0  0
   -8.2633    6.5262   -0.2743 C   0  0  0  0  0  0
   -6.7432    6.3731   -0.3994 C   0  0  0  0  0  0
   -6.2771    4.9154   -0.3111 C   0  0  0  0  0  0
   -4.7582    4.7441   -0.4243 C   0  0  0  0  0  0
   -4.3083    3.2823   -0.3200 C   0  0  0  0  0  0
   -2.7899    3.0962   -0.4160 C   0  0  0  0  0  0
   -2.3519    1.6326   -0.2890 C   0  0  0  0  0  0
   -0.8333    1.4378   -0.3613 C   0  0  0  0  0  0
   -0.4020   -0.0252   -0.2061 C   0  0  0  0  0  0
    1.1202   -0.2139   -0.2444 C   0  0  0  0  0  0
    1.5844   -1.6755   -0.1463 C   0  0  0  0  0  0
    1.2164   -2.3696    1.1725 C   0  0  0  0  0  0
    1.8308   -3.7672    1.3124 C   0  0  0  0  0  0
    1.4397   -4.4762    2.6143 C   0  0  0  0  0  0
    2.1206   -5.8376    2.7935 C   0  0  0  0  0  0
    1.7226   -6.5552    4.0885 C   0  0  0  0  0  0
    2.4780   -7.8745    4.2992 C   0  0  0  0  0  0
    2.1435   -8.5972    5.6134 C   0  0  0  0  0  0
    0.7216   -9.1697    5.6707 C   0  0  0  0  0  0
    0.4513   -9.9147    6.9905 C   0  0  0  0  0  0
   -0.9110  -10.5735    7.0222 C   0  0  0  0  0  0
   -1.1149  -11.7650    7.1182 O   0  0  0  0  0  0
   -1.9005   -9.6556    6.9118 O   0  0  0  0  0  0
   -3.2476  -10.1838    6.9050 C   0  0  0  0  0  0
   -4.1912   -9.0062    6.7578 C   0  0  0  0  0  0
  -13.8752   11.1908   -0.1316 H   0  0  0  0  0  0
  -12.5124   11.5945   -1.1859 H   0  0  0  0  0  0
  -12.3452   11.7399    0.5678 H   0  0  0  0  0  0
  -12.6062    9.2350    0.7939 H   0  0  0  0  0  0
  -12.7721    9.0906   -0.9470 H   0  0  0  0  0  0
  -10.4504   10.0097   -1.2450 H   0  0  0  0  0  0
  -10.2844   10.1543    0.4969 H   0  0  0  0  0  0
  -10.5903    7.6670    0.7319 H   0  0  0  0  0  0
  -10.7547    7.5227   -1.0096 H   0  0  0  0  0  0
   -8.4230    8.4210   -1.3050 H   0  0  0  0  0  0
   -8.2591    8.5684    0.4371 H   0  0  0  0  0  0
   -8.5938    6.0855    0.6774 H   0  0  0  0  0  0
   -8.7527    5.9384   -1.0642 H   0  0  0  0  0  0
   -6.4095    6.8065   -1.3531 H   0  0  0  0  0  0
   -6.2517    6.9613    0.3889 H   0  0  0  0  0  0
   -6.6193    4.4838    0.6406 H   0  0  0  0  0  0
   -6.7680    4.3291   -1.1013 H   0  0  0  0  0  0
   -4.4127    5.1659   -1.3790 H   0  0  0  0  0  0
   -4.2658    5.3334    0.3627 H   0  0  0  0  0  0
   -4.6640    2.8621    0.6319 H   0  0  0  0  0  0
   -4.7970    2.6943   -1.1102 H   0  0  0  0  0  0
   -2.4312    3.5039   -1.3720 H   0  0  0  0  0  0
   -2.3009    3.6911    0.3690 H   0  0  0  0  0  0
   -2.7229    1.2260    0.6630 H   0  0  0  0  0  0
   -2.8333    1.0382   -1.0789 H   0  0  0  0  0  0
   -0.4590    1.8310   -1.3175 H   0  0  0  0  0  0
   -0.3532    2.0417    0.4222 H   0  0  0  0  0  0
   -0.8015   -0.4134    0.7400 H   0  0  0  0  0  0
   -0.8630   -0.6294   -1.0012 H   0  0  0  0  0  0
    1.5080    0.2225   -1.1751 H   0  0  0  0  0  0
    1.5747    0.3642    0.5733 H   0  0  0  0  0  0
    1.1658   -2.2490   -0.9858 H   0  0  0  0  0  0
    2.6754   -1.7091   -0.2710 H   0  0  0  0  0  0
    1.5461   -1.7441    2.0150 H   0  0  0  0  0  0
    0.1251   -2.4481    1.2625 H   0  0  0  0  0  0
    1.5295   -4.3869    0.4556 H   0  0  0  0  0  0
    2.9261   -3.6877    1.2567 H   0  0  0  0  0  0
    1.6925   -3.8320    3.4689 H   0  0  0  0  0  0
    0.3482   -4.6052    2.6458 H   0  0  0  0  0  0
    1.8847   -6.4811    1.9338 H   0  0  0  0  0  0
    3.2113   -5.6990    2.7760 H   0  0  0  0  0  0
    1.9130   -5.8924    4.9452 H   0  0  0  0  0  0
    0.6396   -6.7361    4.0799 H   0  0  0  0  0  0
    2.2794   -8.5489    3.4538 H   0  0  0  0  0  0
    3.5564   -7.6680    4.2736 H   0  0  0  0  0  0
    2.8582   -9.4175    5.7635 H   0  0  0  0  0  0
    2.2922   -7.9066    6.4563 H   0  0  0  0  0  0
   -0.0236   -8.3759    5.5568 H   0  0  0  0  0  0
    0.5756   -9.8601    4.8291 H   0  0  0  0  0  0
    1.1921  -10.7018    7.1535 H   0  0  0  0  0  0
    0.5156   -9.2076    7.8268 H   0  0  0  0  0  0
   -3.3445  -10.8983    6.0810 H   0  0  0  0  0  0
   -3.4167  -10.7358    7.8355 H   0  0  0  0  0  0
   -5.2280   -9.3563    6.7455 H   0  0  0  0  0  0
   -3.9966   -8.4678    5.8257 H   0  0  0  0  0  0
   -4.0718   -8.3068    7.5901 H   0  0  0  0  0  0
  1  2  1  0  0  0
  1 31  1  0  0  0
  1 32  1  0  0  0
  1 33  1  0  0  0
  2  3  1  0  0  0
  2 34  1  0  0  0
  2 35  1  0  0  0
  3  4  1  0  0  0
  3 36  1  0  0  0
  3 37  1  0  0  0
  4  5  1  0  0  0
  4 38  1  0  0  0
  4 39  1  0  0  0
  5  6  1  0  0  0
  5 40  1  0  0  0
  5 41  1  0  0  0
  6  7  1  0  0  0
  6 42  1  0  0  0
  6 43  1  0  0  0
  7  8  1  0  0  0
  7 44  1  0  0  0
  7 45  1  0  0  0
  8  9  1  0  0  0
  8 46  1  0  0  0
  8 47  1  0  0  0
  9 10  1  0  0  0
  9 48  1  0  0  0
  9 49  1  0  0  0
 10 11  1  0  0  0
 10 50  1  0  0  0
 10 51  1  0  0  0
 11 12  1  0  0  0
 11 52  1  0  0  0
 11 53  1  0  0  0
 12 13  1  0  0  0
 12 54  1  0  0  0
 12 55  1  0  0  0
 13 14  1  0  0  0
 13 56  1  0  0  0
 13 57  1  0  0  0
 14 15  1  0  0  0
 14 58  1  0  0  0
 14 59  1  0  0  0
 15 16  1  0  0  0
 15 60  1  0  0  0
 15 61  1  0  0  0
 16 17  1  0  0  0
 16 62  1  0  0  0
 16 63  1  0  0  0
 17 18  1  0  0  0
 17 64  1  0  0  0
 17 65  1  0  0  0
 18 19  1  0  0  0
 18 66  1  0  0  0
 18 67  1  0  0  0
 19 20  1  0  0  0
 19 68  1  0  0  0
 19 69  1  0  0  0
 20 21  1  0  0  0
 20 70  1  0  0  0
 20 71  1  0  0  0
 21 22  1  0  0  0
 21 72  1  0  0  0
 21 73  1  0  0  0
 22 23  1  0  0  0
 22 74  1  0  0  0
 22 75  1  0  0  0
 23 24  1  0  0  0
 23 76  1  0  0  0
 23 77  1  0  0  0
 24 25  1  0  0  0
 24 78  1  0  0  0
 24 79  1  0  0  0
 25 26  1  0  0  0
 25 80  1  0  0  0
 25 81  1  0  0  0
 26 27  2  0  0  0
 26 28  1  0  0  0
 28 29  1  0  0  0
 29 30  1  0  0  0
 29 82  1  0  0  0
 29 83  1  0  0  0
 30 84  1  0  0  0
 30 85  1  0  0  0
 30 86  1  0  0  0
M  END
>  <i_m_Spin_multiplicity> (1)
1

>  <s_j_Task> (1)
Single Point

>  <s_j_QM_Method> (1)
DFT(b3lyp-d3)

>  <s_j_QM_Basis> (1)
cc-pvtz(-f)

>  <i_j_Number_of_canonical_orbitals> (1)
1185

>  <i_j_Geometry_convergence_category> (1)
3

>  <r_j_Gas_Phase_Energy> (1)
-1251.73268604828

>  <r_j_Final_Energy> (1)
-1251.73268604828

>  <r_j_HOMO> (1)
-0.253325251324338

>  <r_j_LUMO> (1)
-0.0880789921166608

>  <r_j_Polarizability> (1)
355.040047210586

>  <r_j_QM_Dipole_(debye)> (1)
2.14788322811504

>  <r_j_QM_Dipole_X_(debye)> (1)
-0.311740114882094

>  <r_j_QM_Dipole_Y_(debye)> (1)
2.07381342077208

>  <r_j_QM_Dipole_Z_(debye)> (1)
-0.464239548311845

>  <r_j_Lowest_Frequency_(cm-1)> (1)
15.5485454565817

>  <r_j_Highest_Frequency_(cm-1)> (1)
3073.58884847842

>  <r_j_2nd_Lowest_Frequency_(cm-1)> (1)
25.3370761392473

>  <i_j_Num_Negative_Frequencies> (1)
0

>  <r_j_Zero_Point_Energy_(kcal/mol)> (1)
503.160301757141

>  <r_j_Entropy_(cal/mol/K)_298.15K_1.00E+00atm> (1)
214.876426408786

>  <r_j_Enthalpy_(kcal/mol)_298.15K_1.00E+00atm> (1)
23.2109534811647

>  <r_j_Free_Energy_(kcal/mol)_298.15K_1.00E+00atm> (1)
-40.8544530526149

>  <r_j_Internal_Energy_(kcal/mol)_298.15K_1.00E+00atm> (1)
22.6184678923374

>  <r_j_Heat_Capacity_(cal/mol/K)_298.15K_1.00E+00atm> (1)
137.648107029196

>  <r_j_ln(Q)_298.15K_1.00E+00atm> (1)
68.9543405325341

>  <r_j_Total_Internal_Energy_(au)_298.15K_1.00E+00atm> (1)
-1250.89480423966

>  <r_j_Total_Enthalpy_(au)_298.15K_1.00E+00atm> (1)
-1250.89386005377

>  <r_j_Total_Free_Energy_(au)_298.15K_1.00E+00atm> (1)
-1250.99595477838

>  <r_lp_tautomer_probability> (1)
1

>  <r_epik_Ionization_Penalty> (1)
  0.0000

>  <r_epik_Ionization_Penalty_Charging> (1)
  0.0000

>  <r_epik_Ionization_Penalty_Neutral> (1)
  0.0000

>  <r_epik_State_Penalty> (1)
  0.0000

>  <r_epik_Charging_Adjusted_Penalty> (1)
0

>  <i_epik_Tot_Q> (1)
0

>  <i_epik_Tot_abs_Q> (1)
0

>  <s_lp_Force_Field> (1)
S-OPLS

>  <r_lp_Energy> (1)
13.946508

>  <b_lp_Chiralities_Consistent> (1)
1

>  <s_epik_Chemistry_Notes> (1)
This compound has an ester and may undergo hydrolysis at high or low pH.

$$$$
