13381_1-decene
                    3D
 Schrodinger Suite 2021-3.
 30 29  0  0  1  0            999 V2000
   -2.6627    3.1032    0.0783 C   0  0  0  0  0  0
   -2.1446    1.6626    0.0377 C   0  0  0  0  0  0
   -0.6138    1.5741    0.0207 C   0  0  0  0  0  0
   -0.0879    0.1348   -0.0052 C   0  0  0  0  0  0
    1.4420    0.0402   -0.0243 C   0  0  0  0  0  0
    1.9577   -1.4028   -0.0225 C   0  0  0  0  0  0
    3.4870   -1.5029   -0.0437 C   0  0  0  0  0  0
    4.0077   -2.9549   -0.0143 C   0  0  0  0  0  0
    3.6333   -3.7406   -1.2417 C   0  0  0  0  0  0
    2.8796   -4.8405   -1.2592 C   0  0  0  0  0  0
   -3.7571    3.1382    0.0883 H   0  0  0  0  0  0
   -2.3184    3.6706   -0.7941 H   0  0  0  0  0  0
   -2.3038    3.6255    0.9728 H   0  0  0  0  0  0
   -2.5282    1.1092    0.9059 H   0  0  0  0  0  0
   -2.5456    1.1515   -0.8482 H   0  0  0  0  0  0
   -0.2282    2.1200   -0.8527 H   0  0  0  0  0  0
   -0.2107    2.0928    0.9026 H   0  0  0  0  0  0
   -0.4733   -0.4071    0.8705 H   0  0  0  0  0  0
   -0.4942   -0.3856   -0.8844 H   0  0  0  0  0  0
    1.8279    0.5651   -0.9101 H   0  0  0  0  0  0
    1.8502    0.5753    0.8454 H   0  0  0  0  0  0
    1.5760   -1.9243    0.8675 H   0  0  0  0  0  0
    1.5459   -1.9428   -0.8848 H   0  0  0  0  0  0
    3.8742   -0.9970   -0.9397 H   0  0  0  0  0  0
    3.9012   -0.9596    0.8160 H   0  0  0  0  0  0
    5.1029   -2.9326    0.0767 H   0  0  0  0  0  0
    3.6278   -3.4627    0.8819 H   0  0  0  0  0  0
    4.0170   -3.3473   -2.1852 H   0  0  0  0  0  0
    2.4725   -5.2645   -0.3441 H   0  0  0  0  0  0
    2.6423   -5.3585   -2.1838 H   0  0  0  0  0  0
  1  2  1  0  0  0
  1 11  1  0  0  0
  1 12  1  0  0  0
  1 13  1  0  0  0
  2  3  1  0  0  0
  2 14  1  0  0  0
  2 15  1  0  0  0
  3  4  1  0  0  0
  3 16  1  0  0  0
  3 17  1  0  0  0
  4  5  1  0  0  0
  4 18  1  0  0  0
  4 19  1  0  0  0
  5  6  1  0  0  0
  5 20  1  0  0  0
  5 21  1  0  0  0
  6  7  1  0  0  0
  6 22  1  0  0  0
  6 23  1  0  0  0
  7  8  1  0  0  0
  7 24  1  0  0  0
  7 25  1  0  0  0
  8  9  1  0  0  0
  8 26  1  0  0  0
  8 27  1  0  0  0
  9 10  2  0  0  0
  9 28  1  0  0  0
 10 29  1  0  0  0
 10 30  1  0  0  0
M  END
>  <i_m_Spin_multiplicity> (1)
1

>  <s_j_Task> (1)
Single Point

>  <s_j_QM_Method> (1)
DFT(b3lyp-d3)

>  <s_j_QM_Basis> (1)
cc-pvtz(-f)

>  <i_j_Number_of_canonical_orbitals> (1)
406

>  <i_j_Geometry_convergence_category> (1)
3

>  <r_j_Gas_Phase_Energy> (1)
-393.261805215459

>  <r_j_Final_Energy> (1)
-393.261805215459

>  <r_j_HOMO> (1)
-0.273411512339979

>  <r_j_LUMO> (1)
-0.00871504767218008

>  <r_j_Polarizability> (1)
122.989903723525

>  <r_j_QM_Dipole_(debye)> (1)
0.298729880033384

>  <r_j_QM_Dipole_X_(debye)> (1)
0.136775602026485

>  <r_j_QM_Dipole_Y_(debye)> (1)
0.240656952287633

>  <r_j_QM_Dipole_Z_(debye)> (1)
0.112321891146297

>  <r_j_Lowest_Frequency_(cm-1)> (1)
63.0463346710643

>  <r_j_Highest_Frequency_(cm-1)> (1)
3168.57831892215

>  <r_j_2nd_Lowest_Frequency_(cm-1)> (1)
82.5622008278827

>  <i_j_Num_Negative_Frequencies> (1)
0

>  <r_j_Zero_Point_Energy_(kcal/mol)> (1)
175.102445116071

>  <r_j_Entropy_(cal/mol/K)_298.15K_1.00E+00atm> (1)
107.366961573893

>  <r_j_Enthalpy_(kcal/mol)_298.15K_1.00E+00atm> (1)
8.25585683020563

>  <r_j_Free_Energy_(kcal/mol)_298.15K_1.00E+00atm> (1)
-23.7556027630505

>  <r_j_Internal_Energy_(kcal/mol)_298.15K_1.00E+00atm> (1)
7.66337124137835

>  <r_j_Heat_Capacity_(cal/mol/K)_298.15K_1.00E+00atm> (1)
45.7454629539594

>  <r_j_ln(Q)_298.15K_1.00E+00atm> (1)
40.0948195382621

>  <r_j_Total_Internal_Energy_(au)_298.15K_1.00E+00atm> (1)
-392.970549345874

>  <r_j_Total_Enthalpy_(au)_298.15K_1.00E+00atm> (1)
-392.969605159982

>  <r_j_Total_Free_Energy_(au)_298.15K_1.00E+00atm> (1)
-393.020618668341

>  <r_lp_tautomer_probability> (1)
1

>  <r_epik_Ionization_Penalty> (1)
  0.0000

>  <r_epik_Ionization_Penalty_Charging> (1)
  0.0000

>  <r_epik_Ionization_Penalty_Neutral> (1)
  0.0000

>  <r_epik_State_Penalty> (1)
  0.0000

>  <r_epik_Charging_Adjusted_Penalty> (1)
0

>  <i_epik_Tot_Q> (1)
0

>  <i_epik_Tot_abs_Q> (1)
0

>  <s_lp_Force_Field> (1)
S-OPLS

>  <r_lp_Energy> (1)
1.145902

>  <b_lp_Chiralities_Consistent> (1)
1

$$$$
