13403_1,3-dimethyl-4-ethylbenzene
                    3D
 Schrodinger Suite 2021-3.
 24 24  0  0  1  0            999 V2000
   -0.5816    1.4578   -0.0164 C   0  0  0  0  0  0
   -0.0284    0.0209   -0.0352 C   0  0  0  0  0  0
    1.4861   -0.0177    0.0036 C   0  0  0  0  0  0
    2.2029   -0.0053    1.2198 C   0  0  0  0  0  0
    3.5998   -0.0021    1.1839 C   0  0  0  0  0  0
    4.3222   -0.0069   -0.0160 C   0  0  0  0  0  0
    3.6010   -0.0147   -1.2109 C   0  0  0  0  0  0
    2.2064   -0.0218   -1.1936 C   0  0  0  0  0  0
    5.8330   -0.0065   -0.0003 C   0  0  0  0  0  0
    1.4870   -0.0105    2.5521 C   0  0  0  0  0  0
   -1.6764    1.4617   -0.0450 H   0  0  0  0  0  0
   -0.2144    2.0217   -0.8798 H   0  0  0  0  0  0
   -0.2640    1.9939    0.8836 H   0  0  0  0  0  0
   -0.4493   -0.5412    0.8058 H   0  0  0  0  0  0
   -0.3780   -0.4825   -0.9441 H   0  0  0  0  0  0
    4.1470    0.0023    2.1250 H   0  0  0  0  0  0
    4.1294   -0.0195   -2.1610 H   0  0  0  0  0  0
    1.6618   -0.0311   -2.1353 H   0  0  0  0  0  0
    6.2456   -0.0023   -1.0132 H   0  0  0  0  0  0
    6.2258   -0.8899    0.5167 H   0  0  0  0  0  0
    6.2257    0.8722    0.5244 H   0  0  0  0  0  0
    2.1959    0.0642    3.3810 H   0  0  0  0  0  0
    0.9094   -0.9319    2.6938 H   0  0  0  0  0  0
    0.7814    0.8223    2.6413 H   0  0  0  0  0  0
  1  2  1  0  0  0
  1 11  1  0  0  0
  1 12  1  0  0  0
  1 13  1  0  0  0
  2  3  1  0  0  0
  2 14  1  0  0  0
  2 15  1  0  0  0
  3  8  1  0  0  0
  3  4  2  0  0  0
  4  5  1  0  0  0
  4 10  1  0  0  0
  5  6  2  0  0  0
  5 16  1  0  0  0
  6  7  1  0  0  0
  6  9  1  0  0  0
  7  8  2  0  0  0
  7 17  1  0  0  0
  8 18  1  0  0  0
  9 19  1  0  0  0
  9 20  1  0  0  0
  9 21  1  0  0  0
 10 22  1  0  0  0
 10 23  1  0  0  0
 10 24  1  0  0  0
M  END
>  <i_m_Spin_multiplicity> (1)
1

>  <s_j_Task> (1)
Single Point

>  <s_j_QM_Method> (1)
DFT(b3lyp-d3)

>  <s_j_QM_Basis> (1)
cc-pvtz(-f)

>  <i_j_Number_of_canonical_orbitals> (1)
348

>  <i_j_Geometry_convergence_category> (1)
0

>  <r_j_Gas_Phase_Energy> (1)
-389.65631482302

>  <r_j_Final_Energy> (1)
-389.65631482302

>  <r_j_HOMO> (1)
-0.23079495613025

>  <r_j_LUMO> (1)
-0.00802993264570705

>  <r_j_Polarizability> (1)
116.471881297783

>  <r_j_QM_Dipole_(debye)> (1)
0.338920046978717

>  <r_j_QM_Dipole_X_(debye)> (1)
-0.156360053184479

>  <r_j_QM_Dipole_Y_(debye)> (1)
0.0125643495244745

>  <r_j_QM_Dipole_Z_(debye)> (1)
0.300433801582361

>  <r_j_Lowest_Frequency_(cm-1)> (1)
105.795449606262

>  <r_j_Highest_Frequency_(cm-1)> (1)
3125.38766033334

>  <r_j_2nd_Lowest_Frequency_(cm-1)> (1)
117.399143333773

>  <i_j_Num_Negative_Frequencies> (1)
0

>  <r_j_Zero_Point_Energy_(kcal/mol)> (1)
132.650722747701

>  <r_j_Entropy_(cal/mol/K)_298.15K_1.00E+00atm> (1)
95.5114228613003

>  <r_j_Enthalpy_(kcal/mol)_298.15K_1.00E+00atm> (1)
6.85716406071401

>  <r_j_Free_Energy_(kcal/mol)_298.15K_1.00E+00atm> (1)
-21.6195666653827

>  <r_j_Internal_Energy_(kcal/mol)_298.15K_1.00E+00atm> (1)
6.26467847188674

>  <r_j_Heat_Capacity_(cal/mol/K)_298.15K_1.00E+00atm> (1)
39.1531435845909

>  <r_j_ln(Q)_298.15K_1.00E+00atm> (1)
36.4896076344657

>  <r_j_Total_Internal_Energy_(au)_298.15K_1.00E+00atm> (1)
-389.434939038493

>  <r_j_Total_Enthalpy_(au)_298.15K_1.00E+00atm> (1)
-389.433994852601

>  <r_j_Total_Free_Energy_(au)_298.15K_1.00E+00atm> (1)
-389.479375411919

>  <r_lp_tautomer_probability> (1)
1

>  <r_epik_Ionization_Penalty> (1)
  0.0000

>  <r_epik_Ionization_Penalty_Charging> (1)
  0.0000

>  <r_epik_Ionization_Penalty_Neutral> (1)
  0.0000

>  <r_epik_State_Penalty> (1)
  0.0000

>  <r_epik_Charging_Adjusted_Penalty> (1)
0

>  <i_epik_Tot_Q> (1)
0

>  <i_epik_Tot_abs_Q> (1)
0

>  <s_lp_Force_Field> (1)
S-OPLS

>  <r_lp_Energy> (1)
6.73039

>  <b_lp_Chiralities_Consistent> (1)
1

$$$$
