13438_9-methylphenanthrene
                    3D
 Schrodinger Suite 2021-3.
 27 29  0  0  1  0            999 V2000
   -0.0316    0.0366    0.0000 C   0  0  0  0  0  0
    1.4772    0.0173    0.0000 C   0  0  0  0  0  0
    2.1839    1.1829    0.0000 C   0  0  0  0  0  0
    3.6157    1.2211    0.0000 C   0  0  0  0  0  0
    4.3047    2.4559    0.0000 C   0  0  0  0  0  0
    5.6842    2.5014    0.0000 C   0  0  0  0  0  0
    6.4187    1.3018    0.0001 C   0  0  0  0  0  0
    5.7652    0.0838    0.0000 C   0  0  0  0  0  0
    4.3532    0.0047    0.0000 C   0  0  0  0  0  0
    3.6220   -1.2544   -0.0001 C   0  0  0  0  0  0
    4.2791   -2.5067    0.0000 C   0  0  0  0  0  0
    3.5764   -3.6964    0.0000 C   0  0  0  0  0  0
    2.1722   -3.6823    0.0000 C   0  0  0  0  0  0
    1.4998   -2.4758    0.0000 C   0  0  0  0  0  0
    2.1936   -1.2418    0.0000 C   0  0  0  0  0  0
   -0.4076    1.0626    0.0001 H   0  0  0  0  0  0
   -0.4406   -0.4712    0.8816 H   0  0  0  0  0  0
   -0.4407   -0.4712   -0.8815 H   0  0  0  0  0  0
    1.6530    2.1321    0.0000 H   0  0  0  0  0  0
    3.7249    3.3753    0.0000 H   0  0  0  0  0  0
    6.2015    3.4562    0.0001 H   0  0  0  0  0  0
    7.5045    1.3304    0.0001 H   0  0  0  0  0  0
    6.3594   -0.8226    0.0000 H   0  0  0  0  0  0
    5.3624   -2.5460    0.0000 H   0  0  0  0  0  0
    4.1121   -4.6412    0.0000 H   0  0  0  0  0  0
    1.6170   -4.6157    0.0001 H   0  0  0  0  0  0
    0.4155   -2.4760    0.0000 H   0  0  0  0  0  0
  1  2  1  0  0  0
  1 16  1  0  0  0
  1 17  1  0  0  0
  1 18  1  0  0  0
  2 15  1  0  0  0
  2  3  2  0  0  0
  3  4  1  0  0  0
  3 19  1  0  0  0
  4  9  1  0  0  0
  4  5  2  0  0  0
  5  6  1  0  0  0
  5 20  1  0  0  0
  6  7  2  0  0  0
  6 21  1  0  0  0
  7  8  1  0  0  0
  7 22  1  0  0  0
  8  9  2  0  0  0
  8 23  1  0  0  0
  9 10  1  0  0  0
 10 15  1  0  0  0
 10 11  2  0  0  0
 11 12  1  0  0  0
 11 24  1  0  0  0
 12 13  2  0  0  0
 12 25  1  0  0  0
 13 14  1  0  0  0
 13 26  1  0  0  0
 14 15  2  0  0  0
 14 27  1  0  0  0
M  END
>  <i_m_Spin_multiplicity> (1)
1

>  <s_j_Task> (1)
Single Point

>  <s_j_QM_Method> (1)
DFT(b3lyp-d3)

>  <s_j_QM_Basis> (1)
cc-pvtz(-f)

>  <i_j_Number_of_canonical_orbitals> (1)
439

>  <i_j_Geometry_convergence_category> (1)
0

>  <r_j_Gas_Phase_Energy> (1)
-579.048055409987

>  <r_j_Final_Energy> (1)
-579.048055409987

>  <r_j_HOMO> (1)
-0.218660452921679

>  <r_j_LUMO> (1)
-0.0504060190515445

>  <r_j_Polarizability> (1)
176.97342066604

>  <r_j_QM_Dipole_(debye)> (1)
0.390394109303404

>  <r_j_QM_Dipole_X_(debye)> (1)
-0.384255833038595

>  <r_j_QM_Dipole_Y_(debye)> (1)
-0.0689564135247512

>  <r_j_QM_Dipole_Z_(debye)> (1)
0.000168488625197899

>  <r_j_Lowest_Frequency_(cm-1)> (1)
108.510001811182

>  <r_j_Highest_Frequency_(cm-1)> (1)
3166.05569102445

>  <r_j_2nd_Lowest_Frequency_(cm-1)> (1)
118.94074283682

>  <i_j_Num_Negative_Frequencies> (1)
0

>  <r_j_Zero_Point_Energy_(kcal/mol)> (1)
138.94914978637

>  <r_j_Entropy_(cal/mol/K)_298.15K_1.00E+00atm> (1)
100.020322374534

>  <r_j_Enthalpy_(kcal/mol)_298.15K_1.00E+00atm> (1)
7.28129952398017

>  <r_j_Free_Energy_(kcal/mol)_298.15K_1.00E+00atm> (1)
-22.539759591987

>  <r_j_Internal_Energy_(kcal/mol)_298.15K_1.00E+00atm> (1)
6.68881393515289

>  <r_j_Heat_Capacity_(cal/mol/K)_298.15K_1.00E+00atm> (1)
45.7174065969747

>  <r_j_ln(Q)_298.15K_1.00E+00atm> (1)
38.0427136406823

>  <r_j_Total_Internal_Energy_(au)_298.15K_1.00E+00atm> (1)
-578.815966540122

>  <r_j_Total_Enthalpy_(au)_298.15K_1.00E+00atm> (1)
-578.81502235423

>  <r_j_Total_Free_Energy_(au)_298.15K_1.00E+00atm> (1)
-578.862545237217

>  <r_lp_tautomer_probability> (1)
1

>  <r_epik_Ionization_Penalty> (1)
  0.0000

>  <r_epik_Ionization_Penalty_Charging> (1)
  0.0000

>  <r_epik_Ionization_Penalty_Neutral> (1)
  0.0000

>  <r_epik_State_Penalty> (1)
  0.0000

>  <r_epik_Charging_Adjusted_Penalty> (1)
0

>  <i_epik_Tot_Q> (1)
0

>  <i_epik_Tot_abs_Q> (1)
0

>  <s_lp_Force_Field> (1)
S-OPLS

>  <r_lp_Energy> (1)
32.9087

>  <b_lp_Chiralities_Consistent> (1)
1

$$$$
