13462_3-nitrofluoranthene
                    3D
 Schrodinger Suite 2021-3.
 28 31  0  0  1  0            999 V2000
   -6.6162    0.2249    0.0001 C   0  0  0  0  0  0
   -6.6956    1.6203   -0.0001 C   0  0  0  0  0  0
   -5.5370    2.4077   -0.0001 C   0  0  0  0  0  0
   -4.3004    1.7750    0.0000 C   0  0  0  0  0  0
   -4.2198    0.3543    0.0000 C   0  0  0  0  0  0
   -5.3740   -0.4208    0.0001 C   0  0  0  0  0  0
   -2.7972   -0.0183    0.0000 C   0  0  0  0  0  0
   -2.0541    1.1925    0.0000 C   0  0  0  0  0  0
   -2.9265    2.3112    0.0000 C   0  0  0  0  0  0
   -2.3829    3.5765    0.0001 C   0  0  0  0  0  0
   -0.9684    3.6982    0.0001 C   0  0  0  0  0  0
   -0.1159    2.6081    0.0001 C   0  0  0  0  0  0
   -0.6490    1.2826    0.0000 C   0  0  0  0  0  0
    0.0113    0.0075    0.0000 C   0  0  0  0  0  0
   -0.7034   -1.1821    0.0000 C   0  0  0  0  0  0
   -2.1139   -1.2165    0.0001 C   0  0  0  0  0  0
    1.4771   -0.1189   -0.0001 N   0  3  1  0  0  0
    1.9631   -1.2519   -0.0001 O   0  0  0  0  0  0
    2.1551    0.9115   -0.0002 O   0  5  0  0  0  0
   -7.5281   -0.3642    0.0001 H   0  0  0  0  0  0
   -7.6692    2.1012   -0.0001 H   0  0  0  0  0  0
   -5.6074    3.4915   -0.0002 H   0  0  0  0  0  0
   -5.3159   -1.5053    0.0001 H   0  0  0  0  0  0
   -3.0048    4.4663    0.0001 H   0  0  0  0  0  0
   -0.5329    4.6931    0.0002 H   0  0  0  0  0  0
    0.9527    2.7570    0.0001 H   0  0  0  0  0  0
   -0.1397   -2.1062    0.0000 H   0  0  0  0  0  0
   -2.6266   -2.1729    0.0001 H   0  0  0  0  0  0
  1  6  1  0  0  0
  1  2  2  0  0  0
  1 20  1  0  0  0
  2  3  1  0  0  0
  2 21  1  0  0  0
  3  4  2  0  0  0
  3 22  1  0  0  0
  4  9  1  0  0  0
  4  5  1  0  0  0
  5  6  2  0  0  0
  5  7  1  0  0  0
  6 23  1  0  0  0
  7 16  1  0  0  0
  7  8  2  0  0  0
  8 13  1  0  0  0
  8  9  1  0  0  0
  9 10  2  0  0  0
 10 11  1  0  0  0
 10 24  1  0  0  0
 11 12  2  0  0  0
 11 25  1  0  0  0
 12 13  1  0  0  0
 12 26  1  0  0  0
 13 14  2  0  0  0
 14 15  1  0  0  0
 14 17  1  0  0  0
 15 16  2  0  0  0
 15 27  1  0  0  0
 16 28  1  0  0  0
 17 18  2  0  0  0
 17 19  1  0  0  0
M  END
>  <i_m_Spin_multiplicity> (1)
1

>  <s_j_Task> (1)
Single Point

>  <s_j_QM_Method> (1)
DFT(b3lyp-d3)

>  <s_j_QM_Basis> (1)
cc-pvtz(-f)

>  <i_j_Number_of_canonical_orbitals> (1)
502

>  <i_j_Geometry_convergence_category> (1)
3

>  <r_j_Gas_Phase_Energy> (1)
-820.517534807192

>  <r_j_Final_Energy> (1)
-820.517534807192

>  <r_j_HOMO> (1)
-0.232438019566117

>  <r_j_LUMO> (1)
-0.110984746836116

>  <r_j_Polarizability> (1)
211.609524682917

>  <r_j_QM_Dipole_(debye)> (1)
5.35356497008511

>  <r_j_QM_Dipole_X_(debye)> (1)
-5.25769852003484

>  <r_j_QM_Dipole_Y_(debye)> (1)
1.00859511392587

>  <r_j_QM_Dipole_Z_(debye)> (1)
0.000239813858072665

>  <r_j_Lowest_Frequency_(cm-1)> (1)
68.22560575504

>  <r_j_Highest_Frequency_(cm-1)> (1)
3223.32876072369

>  <r_j_2nd_Lowest_Frequency_(cm-1)> (1)
72.8084903894803

>  <i_j_Num_Negative_Frequencies> (1)
0

>  <r_j_Zero_Point_Energy_(kcal/mol)> (1)
130.574839069464

>  <r_j_Entropy_(cal/mol/K)_298.15K_1.00E+00atm> (1)
109.755000141695

>  <r_j_Enthalpy_(kcal/mol)_298.15K_1.00E+00atm> (1)
8.45734536561904

>  <r_j_Free_Energy_(kcal/mol)_298.15K_1.00E+00atm> (1)
-24.2661079266274

>  <r_j_Internal_Energy_(kcal/mol)_298.15K_1.00E+00atm> (1)
7.86485977679177

>  <r_j_Heat_Capacity_(cal/mol/K)_298.15K_1.00E+00atm> (1)
52.8642357198159

>  <r_j_ln(Q)_298.15K_1.00E+00atm> (1)
40.95645258589

>  <r_j_Total_Internal_Energy_(au)_298.15K_1.00E+00atm> (1)
-820.296917102656

>  <r_j_Total_Enthalpy_(au)_298.15K_1.00E+00atm> (1)
-820.295972916764

>  <r_j_Total_Free_Energy_(au)_298.15K_1.00E+00atm> (1)
-820.348121059312

>  <r_lp_tautomer_probability> (1)
1

>  <r_epik_Ionization_Penalty> (1)
  0.0000

>  <r_epik_Ionization_Penalty_Charging> (1)
  0.0000

>  <r_epik_Ionization_Penalty_Neutral> (1)
  0.0000

>  <r_epik_State_Penalty> (1)
  0.0000

>  <r_epik_Charging_Adjusted_Penalty> (1)
0

>  <i_epik_Tot_Q> (1)
0

>  <i_epik_Tot_abs_Q> (1)
2

>  <s_lp_Force_Field> (1)
S-OPLS

>  <r_lp_Energy> (1)
35.8772

>  <b_lp_Chiralities_Consistent> (1)
1

$$$$
