13521_3-Aminopropyl-Triethoxysilane
                    3D
 Schrodinger Suite 2021-3.
 38 37  0  0  1  0            999 V2000
   -2.0753    2.8844    0.1343 C   0  0  0  0  0  0
   -0.7181    2.3896    0.6019 C   0  0  0  0  0  0
   -0.2036    1.4358   -0.3462 O   0  0  0  0  0  0
    0.4744   -0.0107    0.0351 Si  0  0  0  0  0  0
    2.2820    0.1180    0.5527 C   0  0  0  0  0  0
    2.8379   -1.2585    0.9525 C   0  0  0  0  0  0
    4.2972   -1.2444    1.3941 C   0  0  0  0  0  0
    5.1772   -0.7396    0.2467 N   0  3  1  0  0  0
   -0.2690   -0.6982    1.3336 O   0  0  0  0  0  0
   -1.6768   -0.9925    1.4194 C   0  0  0  0  0  0
   -2.1341   -0.8358    2.8578 C   0  0  0  0  0  0
    0.5305   -0.9552   -1.3058 O   0  0  0  0  0  0
   -0.5955   -1.3236   -2.1289 C   0  0  0  0  0  0
   -0.8709   -0.2729   -3.1928 C   0  0  0  0  0  0
   -2.4620    3.6433    0.8217 H   0  0  0  0  0  0
   -2.7939    2.0601    0.0903 H   0  0  0  0  0  0
   -1.9971    3.3257   -0.8629 H   0  0  0  0  0  0
   -0.0049    3.2203    0.6674 H   0  0  0  0  0  0
   -0.7951    1.9329    1.5974 H   0  0  0  0  0  0
    2.8012    0.5456   -0.3185 H   0  0  0  0  0  0
    2.3786    0.8322    1.3795 H   0  0  0  0  0  0
    2.2580   -1.6561    1.7921 H   0  0  0  0  0  0
    2.7073   -1.9751    0.1311 H   0  0  0  0  0  0
    4.4727   -0.5568    2.2249 H   0  0  0  0  0  0
    4.6790   -2.2337    1.6560 H   0  0  0  0  0  0
    6.1634   -0.6563    0.5114 H   0  0  0  0  0  0
    4.8421    0.1813   -0.0603 H   0  0  0  0  0  0
   -2.2447   -0.3209    0.7612 H   0  0  0  0  0  0
   -1.8384   -2.0192    1.0684 H   0  0  0  0  0  0
   -3.1939   -1.0922    2.9507 H   0  0  0  0  0  0
   -1.9966    0.1954    3.1967 H   0  0  0  0  0  0
   -1.5592   -1.4947    3.5145 H   0  0  0  0  0  0
   -0.3407   -2.2862   -2.5833 H   0  0  0  0  0  0
   -1.4833   -1.4856   -1.5031 H   0  0  0  0  0  0
   -1.7022   -0.5901   -3.8307 H   0  0  0  0  0  0
    0.0118   -0.1294   -3.8225 H   0  0  0  0  0  0
   -1.1254    0.6840   -2.7302 H   0  0  0  0  0  0
    5.1144   -1.3683   -0.5615 H   0  0  0  0  0  0
  1  2  1  0  0  0
  1 15  1  0  0  0
  1 16  1  0  0  0
  1 17  1  0  0  0
  2  3  1  0  0  0
  2 18  1  0  0  0
  2 19  1  0  0  0
  3  4  1  0  0  0
  4  5  1  0  0  0
  4  9  1  0  0  0
  4 12  1  0  0  0
  5  6  1  0  0  0
  5 20  1  0  0  0
  5 21  1  0  0  0
  6  7  1  0  0  0
  6 22  1  0  0  0
  6 23  1  0  0  0
  7  8  1  0  0  0
  7 24  1  0  0  0
  7 25  1  0  0  0
  8 26  1  0  0  0
  8 27  1  0  0  0
  8 38  1  0  0  0
  9 10  1  0  0  0
 10 11  1  0  0  0
 10 28  1  0  0  0
 10 29  1  0  0  0
 11 30  1  0  0  0
 11 31  1  0  0  0
 11 32  1  0  0  0
 12 13  1  0  0  0
 13 14  1  0  0  0
 13 33  1  0  0  0
 13 34  1  0  0  0
 14 35  1  0  0  0
 14 36  1  0  0  0
 14 37  1  0  0  0
M  END
>  <i_m_Spin_multiplicity> (1)
1

>  <s_j_Task> (1)
Single Point

>  <s_j_QM_Method> (1)
DFT(b3lyp-d3)

>  <s_j_QM_Basis> (1)
cc-pvtz(-f)

>  <i_j_Number_of_canonical_orbitals> (1)
542

>  <i_j_Geometry_convergence_category> (1)
1

>  <r_j_Gas_Phase_Energy> (1)
-927.531803942466

>  <r_j_Final_Energy> (1)
-927.531803942466

>  <r_j_HOMO> (1)
-0.378423083125398

>  <r_j_LUMO> (1)
-0.180103801048664

>  <r_j_Polarizability> (1)
147.680057323904

>  <r_j_QM_Dipole_(debye)> (1)
15.4785065869867

>  <r_j_QM_Dipole_X_(debye)> (1)
15.220669654089

>  <r_j_QM_Dipole_Y_(debye)> (1)
-2.36790828692317

>  <r_j_QM_Dipole_Z_(debye)> (1)
1.51933926073274

>  <r_j_Lowest_Frequency_(cm-1)> (1)
45.3986556181793

>  <r_j_Highest_Frequency_(cm-1)> (1)
3448.17453875596

>  <r_j_2nd_Lowest_Frequency_(cm-1)> (1)
50.4067214381755

>  <i_j_Num_Negative_Frequencies> (1)
0

>  <r_j_Zero_Point_Energy_(kcal/mol)> (1)
214.071631916027

>  <r_j_Entropy_(cal/mol/K)_298.15K_1.00E+00atm> (1)
136.673486994187

>  <r_j_Enthalpy_(kcal/mol)_298.15K_1.00E+00atm> (1)
12.27572495084

>  <r_j_Free_Energy_(kcal/mol)_298.15K_1.00E+00atm> (1)
-28.4734751964769

>  <r_j_Internal_Energy_(kcal/mol)_298.15K_1.00E+00atm> (1)
11.6832393620127

>  <r_j_Heat_Capacity_(cal/mol/K)_298.15K_1.00E+00atm> (1)
68.0180672265579

>  <r_j_ln(Q)_298.15K_1.00E+00atm> (1)
48.0576671119298

>  <r_j_Total_Internal_Energy_(au)_298.15K_1.00E+00atm> (1)
-927.172040652713

>  <r_j_Total_Enthalpy_(au)_298.15K_1.00E+00atm> (1)
-927.171096466821

>  <r_j_Total_Free_Energy_(au)_298.15K_1.00E+00atm> (1)
-927.236034451179

>  <r_epik_Ionization_Penalty> (1)
  0.0005

>  <r_epik_Ionization_Penalty_Charging> (1)
  0.0005

>  <r_epik_Ionization_Penalty_Neutral> (1)
  0.0000

>  <r_epik_State_Penalty> (1)
  0.0003

>  <r_epik_Charging_Adjusted_Penalty> (1)
0.000825783800688188

>  <i_epik_Tot_Q> (1)
1

>  <i_epik_Tot_abs_Q> (1)
1

>  <s_lp_Force_Field> (1)
S-OPLS

>  <r_lp_Energy> (1)
0.281966

>  <b_lp_Chiralities_Consistent> (1)
1

$$$$
