13533_2,3,4-trimethylhexane
                    3D
 Schrodinger Suite 2021-3.
 29 28  0  0  1  0            999 V2000
   -2.1982   -0.6142    1.2421 C   0  0  0  0  0  0
   -0.6728   -0.7640    1.2009 C   0  0  0  0  0  0
   -0.0092   -0.1095   -0.0278 C   0  0  0  0  0  0
   -0.5083   -0.7355   -1.3424 C   0  0  0  0  0  0
    1.5469   -0.1003    0.0471 C   0  0  0  0  0  0
    2.1374   -1.5222    0.0091 C   0  0  0  0  0  0
    2.1135    0.7103    1.2481 C   0  0  0  0  0  0
    1.4637    2.0964    1.3907 C   0  0  0  0  0  0
    3.6397    0.8774    1.1476 C   0  0  0  0  0  0
   -2.6081   -1.0165    2.1744 H   0  0  0  0  0  0
   -2.6838   -1.1426    0.4160 H   0  0  0  0  0  0
   -2.4907    0.4407    1.1783 H   0  0  0  0  0  0
   -0.2561   -0.3246    2.1148 H   0  0  0  0  0  0
   -0.4132   -1.8303    1.2304 H   0  0  0  0  0  0
   -0.3306    0.9400   -0.0488 H   0  0  0  0  0  0
   -0.4100   -1.8266   -1.3394 H   0  0  0  0  0  0
    0.0563   -0.3518   -2.1995 H   0  0  0  0  0  0
   -1.5633   -0.5050   -1.5157 H   0  0  0  0  0  0
    1.8855    0.4221   -0.8625 H   0  0  0  0  0  0
    1.9377   -2.0596    0.9429 H   0  0  0  0  0  0
    3.2204   -1.5046   -0.1344 H   0  0  0  0  0  0
    1.7182   -2.1121   -0.8101 H   0  0  0  0  0  0
    1.9057    0.1441    2.1678 H   0  0  0  0  0  0
    1.5560    2.6680    0.4587 H   0  0  0  0  0  0
    1.9552    2.6726    2.1816 H   0  0  0  0  0  0
    0.4014    2.0378    1.6426 H   0  0  0  0  0  0
    3.9130    1.3951    0.2195 H   0  0  0  0  0  0
    4.1686   -0.0788    1.1655 H   0  0  0  0  0  0
    4.0185    1.4753    1.9832 H   0  0  0  0  0  0
  1  2  1  0  0  0
  1 10  1  0  0  0
  1 11  1  0  0  0
  1 12  1  0  0  0
  2  3  1  0  0  0
  2 13  1  0  0  0
  2 14  1  0  0  0
  3  4  1  0  0  0
  3  5  1  0  0  0
  3 15  1  0  0  0
  4 16  1  0  0  0
  4 17  1  0  0  0
  4 18  1  0  0  0
  5  6  1  0  0  0
  5  7  1  0  0  0
  5 19  1  0  0  0
  6 20  1  0  0  0
  6 21  1  0  0  0
  6 22  1  0  0  0
  7  8  1  0  0  0
  7  9  1  0  0  0
  7 23  1  0  0  0
  8 24  1  0  0  0
  8 25  1  0  0  0
  8 26  1  0  0  0
  9 27  1  0  0  0
  9 28  1  0  0  0
  9 29  1  0  0  0
M  END
>  <i_m_Spin_multiplicity> (1)
1

>  <s_j_Task> (1)
Single Point

>  <s_j_QM_Method> (1)
DFT(b3lyp-d3)

>  <s_j_QM_Basis> (1)
cc-pvtz(-f)

>  <i_j_Number_of_canonical_orbitals> (1)
383

>  <i_j_Geometry_convergence_category> (1)
0

>  <r_j_Gas_Phase_Energy> (1)
-355.166899052499

>  <r_j_Final_Energy> (1)
-355.166899052499

>  <r_j_HOMO> (1)
-0.300729770599535

>  <r_j_LUMO> (1)
0.0246912330767887

>  <r_j_Polarizability> (1)
109.271832809111

>  <r_j_QM_Dipole_(debye)> (1)
0.0854743059623871

>  <r_j_QM_Dipole_X_(debye)> (1)
-0.00416723755315307

>  <r_j_QM_Dipole_Y_(debye)> (1)
0.0286648930059729

>  <r_j_QM_Dipole_Z_(debye)> (1)
0.0804165096226109

>  <r_j_Lowest_Frequency_(cm-1)> (1)
86.9457954525519

>  <r_j_Highest_Frequency_(cm-1)> (1)
3072.48538245747

>  <r_j_2nd_Lowest_Frequency_(cm-1)> (1)
105.157532233637

>  <i_j_Num_Negative_Frequencies> (1)
0

>  <r_j_Zero_Point_Energy_(kcal/mol)> (1)
171.663752111209

>  <r_j_Entropy_(cal/mol/K)_298.15K_1.00E+00atm> (1)
100.353135771286

>  <r_j_Enthalpy_(kcal/mol)_298.15K_1.00E+00atm> (1)
7.71335119900448

>  <r_j_Free_Energy_(kcal/mol)_298.15K_1.00E+00atm> (1)
-22.2069362312043

>  <r_j_Internal_Energy_(kcal/mol)_298.15K_1.00E+00atm> (1)
7.1208656101772

>  <r_j_Heat_Capacity_(cal/mol/K)_298.15K_1.00E+00atm> (1)
44.4392017877181

>  <r_j_ln(Q)_298.15K_1.00E+00atm> (1)
37.4809727864592

>  <r_j_Total_Internal_Energy_(au)_298.15K_1.00E+00atm> (1)
-354.881987626825

>  <r_j_Total_Enthalpy_(au)_298.15K_1.00E+00atm> (1)
-354.881043440933

>  <r_j_Total_Free_Energy_(au)_298.15K_1.00E+00atm> (1)
-354.928724454305

>  <r_lp_tautomer_probability> (1)
1

>  <r_epik_Ionization_Penalty> (1)
  0.0000

>  <r_epik_Ionization_Penalty_Charging> (1)
  0.0000

>  <r_epik_Ionization_Penalty_Neutral> (1)
  0.0000

>  <r_epik_State_Penalty> (1)
  0.0000

>  <r_epik_Charging_Adjusted_Penalty> (1)
0

>  <i_epik_Tot_Q> (1)
0

>  <i_epik_Tot_abs_Q> (1)
0

>  <s_lp_Force_Field> (1)
S-OPLS

>  <r_lp_Energy> (1)
8.70973

>  <b_lp_Chiralities_Consistent> (1)
1

$$$$
