13561_6-Undecanone
                    3D
 Schrodinger Suite 2021-3.
 34 33  0  0  1  0            999 V2000
   -4.4826    2.5289    0.5004 C   0  0  0  0  0  0
   -3.0118    2.6193    0.0832 C   0  0  0  0  0  0
   -2.2346    1.3238    0.3469 C   0  0  0  0  0  0
   -0.7591    1.4180   -0.0544 C   0  0  0  0  0  0
    0.0228    0.1153    0.2111 C   0  0  0  0  0  0
    1.4879    0.3056   -0.1578 C   0  0  0  0  0  0
    2.2517    0.8773    0.5992 O   0  0  0  0  0  0
    1.9296   -0.1972   -1.5241 C   0  0  0  0  0  0
    3.3420    0.2363   -1.9123 C   0  0  0  0  0  0
    3.7956   -0.3211   -3.2648 C   0  0  0  0  0  0
    5.2081    0.1305   -3.6557 C   0  0  0  0  0  0
    5.6679   -0.4338   -5.0030 C   0  0  0  0  0  0
   -5.0156    3.4639    0.2990 H   0  0  0  0  0  0
   -4.5756    2.3157    1.5715 H   0  0  0  0  0  0
   -4.9979    1.7273   -0.0414 H   0  0  0  0  0  0
   -2.9460    2.8691   -0.9845 H   0  0  0  0  0  0
   -2.5266    3.4460    0.6193 H   0  0  0  0  0  0
   -2.3037    1.0674    1.4135 H   0  0  0  0  0  0
   -2.7112    0.4955   -0.1967 H   0  0  0  0  0  0
   -0.6864    1.6792   -1.1196 H   0  0  0  0  0  0
   -0.2731    2.2306    0.4991 H   0  0  0  0  0  0
   -0.0288   -0.1286    1.2775 H   0  0  0  0  0  0
   -0.4223   -0.7109   -0.3566 H   0  0  0  0  0  0
    1.8432   -1.2950   -1.5100 H   0  0  0  0  0  0
    1.1892    0.1329   -2.2680 H   0  0  0  0  0  0
    3.3857    1.3325   -1.9255 H   0  0  0  0  0  0
    4.0363   -0.0745   -1.1232 H   0  0  0  0  0  0
    3.7601   -1.4202   -3.2405 H   0  0  0  0  0  0
    3.0875   -0.0140   -4.0486 H   0  0  0  0  0  0
    5.2396    1.2281   -3.6852 H   0  0  0  0  0  0
    5.9130   -0.1714   -2.8692 H   0  0  0  0  0  0
    6.6769   -0.0940   -5.2584 H   0  0  0  0  0  0
    4.9962   -0.1219   -5.8113 H   0  0  0  0  0  0
    5.6788   -1.5299   -4.9885 H   0  0  0  0  0  0
  1  2  1  0  0  0
  1 13  1  0  0  0
  1 14  1  0  0  0
  1 15  1  0  0  0
  2  3  1  0  0  0
  2 16  1  0  0  0
  2 17  1  0  0  0
  3  4  1  0  0  0
  3 18  1  0  0  0
  3 19  1  0  0  0
  4  5  1  0  0  0
  4 20  1  0  0  0
  4 21  1  0  0  0
  5  6  1  0  0  0
  5 22  1  0  0  0
  5 23  1  0  0  0
  6  7  2  0  0  0
  6  8  1  0  0  0
  8  9  1  0  0  0
  8 24  1  0  0  0
  8 25  1  0  0  0
  9 10  1  0  0  0
  9 26  1  0  0  0
  9 27  1  0  0  0
 10 11  1  0  0  0
 10 28  1  0  0  0
 10 29  1  0  0  0
 11 12  1  0  0  0
 11 30  1  0  0  0
 11 31  1  0  0  0
 12 32  1  0  0  0
 12 33  1  0  0  0
 12 34  1  0  0  0
M  END
>  <i_m_Spin_multiplicity> (1)
1

>  <s_j_Task> (1)
Single Point

>  <s_j_QM_Method> (1)
DFT(b3lyp-d3)

>  <s_j_QM_Basis> (1)
cc-pvtz(-f)

>  <i_j_Number_of_canonical_orbitals> (1)
471

>  <i_j_Geometry_convergence_category> (1)
3

>  <r_j_Gas_Phase_Energy> (1)
-507.868157382958

>  <r_j_Final_Energy> (1)
-507.868157382958

>  <r_j_HOMO> (1)
-0.241851251376562

>  <r_j_LUMO> (1)
-0.0150749777717651

>  <r_j_Polarizability> (1)
138.01603444085

>  <r_j_QM_Dipole_(debye)> (1)
2.59309842864388

>  <r_j_QM_Dipole_X_(debye)> (1)
-1.79036403951214

>  <r_j_QM_Dipole_Y_(debye)> (1)
-0.924613117495308

>  <r_j_QM_Dipole_Z_(debye)> (1)
-1.63212948310259

>  <r_j_Lowest_Frequency_(cm-1)> (1)
36.6269392173702

>  <r_j_Highest_Frequency_(cm-1)> (1)
3047.52660815649

>  <r_j_2nd_Lowest_Frequency_(cm-1)> (1)
79.1986110196863

>  <i_j_Num_Negative_Frequencies> (1)
0

>  <r_j_Zero_Point_Energy_(kcal/mol)> (1)
195.716171132503

>  <r_j_Entropy_(cal/mol/K)_298.15K_1.00E+00atm> (1)
118.804443388244

>  <r_j_Enthalpy_(kcal/mol)_298.15K_1.00E+00atm> (1)
9.73785462839549

>  <r_j_Free_Energy_(kcal/mol)_298.15K_1.00E+00atm> (1)
-25.6836901678093

>  <r_j_Internal_Energy_(kcal/mol)_298.15K_1.00E+00atm> (1)
9.14536903956822

>  <r_j_Heat_Capacity_(cal/mol/K)_298.15K_1.00E+00atm> (1)
54.2206040428537

>  <r_j_ln(Q)_298.15K_1.00E+00atm> (1)
43.3490546472968

>  <r_j_Total_Internal_Energy_(au)_298.15K_1.00E+00atm> (1)
-507.541689735909

>  <r_j_Total_Enthalpy_(au)_298.15K_1.00E+00atm> (1)
-507.540745550017

>  <r_j_Total_Free_Energy_(au)_298.15K_1.00E+00atm> (1)
-507.597193375093

>  <r_lp_tautomer_probability> (1)
1

>  <r_epik_Ionization_Penalty> (1)
  0.0000

>  <r_epik_Ionization_Penalty_Charging> (1)
  0.0000

>  <r_epik_Ionization_Penalty_Neutral> (1)
  0.0000

>  <r_epik_State_Penalty> (1)
  0.0000

>  <r_epik_Charging_Adjusted_Penalty> (1)
0

>  <i_epik_Tot_Q> (1)
0

>  <i_epik_Tot_abs_Q> (1)
0

>  <s_lp_Force_Field> (1)
S-OPLS

>  <r_lp_Energy> (1)
5.442239

>  <b_lp_Chiralities_Consistent> (1)
1

$$$$
