13578_Diglycolamine
                    3D
 Schrodinger Suite 2021-3.
 19 18  0  0  1  0            999 V2000
   -0.5722    1.3606    0.0101 C   0  0  0  0  0  0
   -0.0959   -0.0861    0.1014 C   0  0  0  0  0  0
    1.3147   -0.0043    0.0344 O   0  0  0  0  0  0
    1.9867   -1.2785    0.0155 C   0  0  0  0  0  0
    3.4845   -1.0189   -0.0413 C   0  0  0  0  0  0
    4.0739   -2.2974   -0.1386 O   0  0  0  0  0  0
    0.1850    1.9872   -1.1505 N   0  3  1  0  0  0
   -1.6438    1.4593   -0.1648 H   0  0  0  0  0  0
   -0.2829    1.9219    0.8999 H   0  0  0  0  0  0
   -0.4460   -0.5231    1.0459 H   0  0  0  0  0  0
   -0.5024   -0.6923   -0.7243 H   0  0  0  0  0  0
    1.7355   -1.8452    0.9196 H   0  0  0  0  0  0
    1.6734   -1.8597   -0.8619 H   0  0  0  0  0  0
    3.7076   -0.3808   -0.9133 H   0  0  0  0  0  0
    3.7917   -0.4704    0.8618 H   0  0  0  0  0  0
    5.0333   -2.2120   -0.0740 H   0  0  0  0  0  0
    0.2123    3.0094   -1.1118 H   0  0  0  0  0  0
   -0.2015    1.7092   -2.0579 H   0  0  0  0  0  0
    1.1435    1.5945   -1.0757 H   0  0  0  0  0  0
  1  2  1  0  0  0
  1  7  1  0  0  0
  1  8  1  0  0  0
  1  9  1  0  0  0
  2  3  1  0  0  0
  2 10  1  0  0  0
  2 11  1  0  0  0
  3  4  1  0  0  0
  4  5  1  0  0  0
  4 12  1  0  0  0
  4 13  1  0  0  0
  5  6  1  0  0  0
  5 14  1  0  0  0
  5 15  1  0  0  0
  6 16  1  0  0  0
  7 17  1  0  0  0
  7 18  1  0  0  0
  7 19  1  0  0  0
M  END
>  <i_m_Spin_multiplicity> (1)
1

>  <s_j_Task> (1)
Single Point

>  <s_j_QM_Method> (1)
DFT(b3lyp-d3)

>  <s_j_QM_Basis> (1)
cc-pvtz(-f)

>  <i_j_Number_of_canonical_orbitals> (1)
267

>  <i_j_Geometry_convergence_category> (1)
0

>  <r_j_Gas_Phase_Energy> (1)
-364.736196076428

>  <r_j_Final_Energy> (1)
-364.736196076428

>  <r_j_HOMO> (1)
-0.400076831672543

>  <r_j_LUMO> (1)
-0.162252009340485

>  <r_j_Polarizability> (1)
63.7221513026651

>  <r_j_QM_Dipole_(debye)> (1)
9.83975591397485

>  <r_j_QM_Dipole_X_(debye)> (1)
-5.28978731636305

>  <r_j_QM_Dipole_Y_(debye)> (1)
7.84453897618861

>  <r_j_QM_Dipole_Z_(debye)> (1)
-2.70224995981227

>  <r_j_Lowest_Frequency_(cm-1)> (1)
74.7245571163402

>  <r_j_Highest_Frequency_(cm-1)> (1)
3783.6252284975

>  <r_j_2nd_Lowest_Frequency_(cm-1)> (1)
123.30951615719

>  <i_j_Num_Negative_Frequencies> (1)
0

>  <r_j_Zero_Point_Energy_(kcal/mol)> (1)
109.257097569764

>  <r_j_Entropy_(cal/mol/K)_298.15K_1.00E+00atm> (1)
89.6265210436248

>  <r_j_Enthalpy_(kcal/mol)_298.15K_1.00E+00atm> (1)
5.9775894242209

>  <r_j_Free_Energy_(kcal/mol)_298.15K_1.00E+00atm> (1)
-20.7445578249358

>  <r_j_Internal_Energy_(kcal/mol)_298.15K_1.00E+00atm> (1)
5.38510383539363

>  <r_j_Heat_Capacity_(cal/mol/K)_298.15K_1.00E+00atm> (1)
30.351807346939

>  <r_j_ln(Q)_298.15K_1.00E+00atm> (1)
35.0127635441669

>  <r_j_Total_Internal_Energy_(au)_298.15K_1.00E+00atm> (1)
-364.553502098272

>  <r_j_Total_Enthalpy_(au)_298.15K_1.00E+00atm> (1)
-364.552557912379

>  <r_j_Total_Free_Energy_(au)_298.15K_1.00E+00atm> (1)
-364.595142364928

>  <r_epik_Ionization_Penalty> (1)
  0.0024

>  <r_epik_Ionization_Penalty_Charging> (1)
  0.0024

>  <r_epik_Ionization_Penalty_Neutral> (1)
  0.0000

>  <r_epik_State_Penalty> (1)
  0.0016

>  <r_epik_Charging_Adjusted_Penalty> (1)
0.00400957

>  <i_epik_Tot_Q> (1)
1

>  <i_epik_Tot_abs_Q> (1)
1

>  <s_lp_Force_Field> (1)
S-OPLS

>  <r_lp_Energy> (1)
4.40592

>  <b_lp_Chiralities_Consistent> (1)
1

$$$$
