13584_Methyl docosanoate
                    3D
 Schrodinger Suite 2021-3.
 71 70  0  0  1  0            999 V2000
  -10.6172    0.6603   -3.4900 C   0  0  0  0  0  0
   -9.0870    0.6108   -3.5286 C   0  0  0  0  0  0
   -8.4277    1.5138   -2.4789 C   0  0  0  0  0  0
   -6.8963    1.4611   -2.5120 C   0  0  0  0  0  0
   -6.2233    2.3478   -1.4576 C   0  0  0  0  0  0
   -4.6929    2.2631   -1.4929 C   0  0  0  0  0  0
   -4.0066    3.1122   -0.4145 C   0  0  0  0  0  0
   -2.4701    3.0822   -0.4676 C   0  0  0  0  0  0
   -1.8631    1.6930   -0.2323 C   0  0  0  0  0  0
   -0.3308    1.6856   -0.1760 C   0  0  0  0  0  0
    0.2421    0.2743   -0.0042 C   0  0  0  0  0  0
    1.7712    0.2174    0.0865 C   0  0  0  0  0  0
    2.2957   -1.2175    0.2162 C   0  0  0  0  0  0
    3.8194   -1.3141    0.3676 C   0  0  0  0  0  0
    4.3564   -2.7549    0.3655 C   0  0  0  0  0  0
    3.8520   -3.6184    1.5291 C   0  0  0  0  0  0
    4.4067   -5.0475    1.5152 C   0  0  0  0  0  0
    3.8543   -5.9128    2.6539 C   0  0  0  0  0  0
    4.3502   -7.3625    2.6208 C   0  0  0  0  0  0
    3.7647   -8.2157    3.7508 C   0  0  0  0  0  0
    4.2413   -9.6798    3.6972 C   0  0  0  0  0  0
    3.6636  -10.4940    4.8332 C   0  0  0  0  0  0
    4.2729  -10.8966    5.8002 O   0  0  0  0  0  0
    2.3343  -10.6938    4.6566 O   0  0  0  0  0  0
    1.6799  -11.4140    5.7148 C   0  0  0  0  0  0
  -11.0608    0.0066   -4.2484 H   0  0  0  0  0  0
  -10.9836    1.6775   -3.6707 H   0  0  0  0  0  0
  -10.9971    0.3425   -2.5122 H   0  0  0  0  0  0
   -8.7487   -0.4235   -3.3775 H   0  0  0  0  0  0
   -8.7342    0.9016   -4.5276 H   0  0  0  0  0  0
   -8.7619    2.5505   -2.6291 H   0  0  0  0  0  0
   -8.7808    1.2245   -1.4785 H   0  0  0  0  0  0
   -6.5681    0.4212   -2.3706 H   0  0  0  0  0  0
   -6.5442    1.7546   -3.5114 H   0  0  0  0  0  0
   -6.5379    3.3915   -1.6004 H   0  0  0  0  0  0
   -6.5797    2.0582   -0.4586 H   0  0  0  0  0  0
   -4.3978    1.2118   -1.3815 H   0  0  0  0  0  0
   -4.3326    2.5756   -2.4839 H   0  0  0  0  0  0
   -4.3482    4.1519   -0.5089 H   0  0  0  0  0  0
   -4.3399    2.7724    0.5769 H   0  0  0  0  0  0
   -2.1318    3.4643   -1.4415 H   0  0  0  0  0  0
   -2.0738    3.7770    0.2853 H   0  0  0  0  0  0
   -2.2612    1.2792    0.7059 H   0  0  0  0  0  0
   -2.1879    1.0075   -1.0256 H   0  0  0  0  0  0
    0.0722    2.1342   -1.0953 H   0  0  0  0  0  0
    0.0106    2.3261    0.6497 H   0  0  0  0  0  0
   -0.1879   -0.1817    0.8994 H   0  0  0  0  0  0
   -0.0920   -0.3524   -0.8437 H   0  0  0  0  0  0
    2.2118    0.6911   -0.8023 H   0  0  0  0  0  0
    2.1096    0.8118    0.9472 H   0  0  0  0  0  0
    1.8067   -1.6927    1.0764 H   0  0  0  0  0  0
    1.9839   -1.7962   -0.6657 H   0  0  0  0  0  0
    4.2954   -0.7560   -0.4501 H   0  0  0  0  0  0
    4.1244   -0.8114    1.2966 H   0  0  0  0  0  0
    4.0841   -3.2381   -0.5841 H   0  0  0  0  0  0
    5.4543   -2.7303    0.3893 H   0  0  0  0  0  0
    4.1116   -3.1331    2.4811 H   0  0  0  0  0  0
    2.7560   -3.6702    1.5047 H   0  0  0  0  0  0
    4.1652   -5.5194    0.5519 H   0  0  0  0  0  0
    5.5041   -5.0198    1.5727 H   0  0  0  0  0  0
    4.1194   -5.4585    3.6191 H   0  0  0  0  0  0
    2.7558   -5.9083    2.6094 H   0  0  0  0  0  0
    4.0898   -7.8142    1.6529 H   0  0  0  0  0  0
    5.4475   -7.3783    2.6794 H   0  0  0  0  0  0
    4.0421   -7.7830    4.7210 H   0  0  0  0  0  0
    2.6696   -8.1983    3.7011 H   0  0  0  0  0  0
    3.9348  -10.1287    2.7456 H   0  0  0  0  0  0
    5.3299   -9.7360    3.7746 H   0  0  0  0  0  0
    0.6325  -11.4853    5.4211 H   0  0  0  0  0  0
    1.7776  -10.8792    6.6635 H   0  0  0  0  0  0
    2.1152  -12.4102    5.8305 H   0  0  0  0  0  0
  1  2  1  0  0  0
  1 26  1  0  0  0
  1 27  1  0  0  0
  1 28  1  0  0  0
  2  3  1  0  0  0
  2 29  1  0  0  0
  2 30  1  0  0  0
  3  4  1  0  0  0
  3 31  1  0  0  0
  3 32  1  0  0  0
  4  5  1  0  0  0
  4 33  1  0  0  0
  4 34  1  0  0  0
  5  6  1  0  0  0
  5 35  1  0  0  0
  5 36  1  0  0  0
  6  7  1  0  0  0
  6 37  1  0  0  0
  6 38  1  0  0  0
  7  8  1  0  0  0
  7 39  1  0  0  0
  7 40  1  0  0  0
  8  9  1  0  0  0
  8 41  1  0  0  0
  8 42  1  0  0  0
  9 10  1  0  0  0
  9 43  1  0  0  0
  9 44  1  0  0  0
 10 11  1  0  0  0
 10 45  1  0  0  0
 10 46  1  0  0  0
 11 12  1  0  0  0
 11 47  1  0  0  0
 11 48  1  0  0  0
 12 13  1  0  0  0
 12 49  1  0  0  0
 12 50  1  0  0  0
 13 14  1  0  0  0
 13 51  1  0  0  0
 13 52  1  0  0  0
 14 15  1  0  0  0
 14 53  1  0  0  0
 14 54  1  0  0  0
 15 16  1  0  0  0
 15 55  1  0  0  0
 15 56  1  0  0  0
 16 17  1  0  0  0
 16 57  1  0  0  0
 16 58  1  0  0  0
 17 18  1  0  0  0
 17 59  1  0  0  0
 17 60  1  0  0  0
 18 19  1  0  0  0
 18 61  1  0  0  0
 18 62  1  0  0  0
 19 20  1  0  0  0
 19 63  1  0  0  0
 19 64  1  0  0  0
 20 21  1  0  0  0
 20 65  1  0  0  0
 20 66  1  0  0  0
 21 22  1  0  0  0
 21 67  1  0  0  0
 21 68  1  0  0  0
 22 23  2  0  0  0
 22 24  1  0  0  0
 24 25  1  0  0  0
 25 69  1  0  0  0
 25 70  1  0  0  0
 25 71  1  0  0  0
M  END
>  <i_m_Spin_multiplicity> (1)
1

>  <s_j_Task> (1)
Single Point

>  <s_j_QM_Method> (1)
DFT(b3lyp-d3)

>  <s_j_QM_Basis> (1)
cc-pvtz(-f)

>  <i_j_Number_of_canonical_orbitals> (1)
982

>  <i_j_Geometry_convergence_category> (1)
3

>  <r_j_Gas_Phase_Energy> (1)
-1055.08048522079

>  <r_j_Final_Energy> (1)
-1055.08048522079

>  <r_j_HOMO> (1)
-0.280689463584607

>  <r_j_LUMO> (1)
-0.0775043080948

>  <r_j_Polarizability> (1)
291.79578287292

>  <r_j_QM_Dipole_(debye)> (1)
2.00886770222001

>  <r_j_QM_Dipole_X_(debye)> (1)
-1.35683049626026

>  <r_j_QM_Dipole_Y_(debye)> (1)
0.794245456499112

>  <r_j_QM_Dipole_Z_(debye)> (1)
-1.25049374419521

>  <r_j_Lowest_Frequency_(cm-1)> (1)
14.2673974395957

>  <r_j_Highest_Frequency_(cm-1)> (1)
3107.00702971312

>  <r_j_2nd_Lowest_Frequency_(cm-1)> (1)
29.68824008082

>  <i_j_Num_Negative_Frequencies> (1)
0

>  <r_j_Zero_Point_Energy_(kcal/mol)> (1)
414.022798340023

>  <r_j_Entropy_(cal/mol/K)_298.15K_1.00E+00atm> (1)
188.78484479324

>  <r_j_Enthalpy_(kcal/mol)_298.15K_1.00E+00atm> (1)
19.3905349586751

>  <r_j_Free_Energy_(kcal/mol)_298.15K_1.00E+00atm> (1)
-36.8956665164294

>  <r_j_Internal_Energy_(kcal/mol)_298.15K_1.00E+00atm> (1)
18.7980493698478

>  <r_j_Heat_Capacity_(cal/mol/K)_298.15K_1.00E+00atm> (1)
113.799367781183

>  <r_j_ln(Q)_298.15K_1.00E+00atm> (1)
62.2726817532527

>  <r_j_Total_Internal_Energy_(au)_298.15K_1.00E+00atm> (1)
-1054.39074129118

>  <r_j_Total_Enthalpy_(au)_298.15K_1.00E+00atm> (1)
-1054.38979710528

>  <r_j_Total_Free_Energy_(au)_298.15K_1.00E+00atm> (1)
-1054.47949487746

>  <r_lp_tautomer_probability> (1)
1

>  <r_epik_Ionization_Penalty> (1)
  0.0000

>  <r_epik_Ionization_Penalty_Charging> (1)
  0.0000

>  <r_epik_Ionization_Penalty_Neutral> (1)
  0.0000

>  <r_epik_State_Penalty> (1)
  0.0000

>  <r_epik_Charging_Adjusted_Penalty> (1)
0

>  <i_epik_Tot_Q> (1)
0

>  <i_epik_Tot_abs_Q> (1)
0

>  <s_lp_Force_Field> (1)
S-OPLS

>  <r_lp_Energy> (1)
11.899872

>  <b_lp_Chiralities_Consistent> (1)
1

>  <s_epik_Chemistry_Notes> (1)
This compound has an ester and may undergo hydrolysis at high or low pH.

$$$$
