13588_2-Cyclopenten-1-one
                    3D
 Schrodinger Suite 2021-3.
 12 12  0  0  1  0            999 V2000
    4.1403    5.7707    0.3855 C   0  0  0  0  0  0
    4.2340    5.6928   -1.1522 C   0  0  0  0  0  0
    3.0590    4.8008   -1.5890 C   0  0  0  0  0  0
    2.7849    4.4941   -2.7335 O   0  0  0  0  0  0
    2.3402    4.3967   -0.3570 C   0  0  0  0  0  0
    2.9327    4.9280    0.7219 C   0  0  0  0  0  0
    4.0107    6.7970    0.7512 H   0  0  0  0  0  0
    5.0360    5.3812    0.8854 H   0  0  0  0  0  0
    4.1421    6.6684   -1.6388 H   0  0  0  0  0  0
    5.1698    5.2487   -1.5043 H   0  0  0  0  0  0
    1.4638    3.7600   -0.3774 H   0  0  0  0  0  0
    2.6030    4.7862    1.7472 H   0  0  0  0  0  0
  1  6  1  0  0  0
  1  2  1  0  0  0
  1  7  1  0  0  0
  1  8  1  0  0  0
  2  3  1  0  0  0
  2  9  1  0  0  0
  2 10  1  0  0  0
  3  4  2  0  0  0
  3  5  1  0  0  0
  5  6  2  0  0  0
  5 11  1  0  0  0
  6 12  1  0  0  0
M  END
>  <i_m_Spin_multiplicity> (1)
1

>  <s_j_Task> (1)
Single Point

>  <s_j_QM_Method> (1)
DFT(b3lyp-d3)

>  <s_j_QM_Basis> (1)
cc-pvtz(-f)

>  <i_j_Number_of_canonical_orbitals> (1)
190

>  <i_j_Geometry_convergence_category> (1)
0

>  <r_j_Gas_Phase_Energy> (1)
-269.447578464159

>  <r_j_Final_Energy> (1)
-269.447578464159

>  <r_j_HOMO> (1)
-0.214208172929194

>  <r_j_LUMO> (1)
-0.0255066650611129

>  <r_j_Polarizability> (1)
56.9855396407118

>  <r_j_QM_Dipole_(debye)> (1)
3.80800492679564

>  <r_j_QM_Dipole_X_(debye)> (1)
0.980397114638024

>  <r_j_QM_Dipole_Y_(debye)> (1)
1.0431939829549

>  <r_j_QM_Dipole_Z_(debye)> (1)
3.5286639587861

>  <r_j_Lowest_Frequency_(cm-1)> (1)
151.723903418335

>  <r_j_Highest_Frequency_(cm-1)> (1)
3177.11835177106

>  <r_j_2nd_Lowest_Frequency_(cm-1)> (1)
321.92130500607

>  <i_j_Num_Negative_Frequencies> (1)
0

>  <r_j_Zero_Point_Energy_(kcal/mol)> (1)
61.008639914185

>  <r_j_Entropy_(cal/mol/K)_298.15K_1.00E+00atm> (1)
72.2798154328803

>  <r_j_Enthalpy_(kcal/mol)_298.15K_1.00E+00atm> (1)
3.75355658698072

>  <r_j_Free_Energy_(kcal/mol)_298.15K_1.00E+00atm> (1)
-17.7966703843326

>  <r_j_Internal_Energy_(kcal/mol)_298.15K_1.00E+00atm> (1)
3.16107099815345

>  <r_j_Heat_Capacity_(cal/mol/K)_298.15K_1.00E+00atm> (1)
18.6346368037258

>  <r_j_ln(Q)_298.15K_1.00E+00atm> (1)
30.0373050753151

>  <r_j_Total_Internal_Energy_(au)_298.15K_1.00E+00atm> (1)
-269.345317519934

>  <r_j_Total_Enthalpy_(au)_298.15K_1.00E+00atm> (1)
-269.344373334042

>  <r_j_Total_Free_Energy_(au)_298.15K_1.00E+00atm> (1)
-269.378715806947

>  <r_lp_tautomer_probability> (1)
1

>  <r_epik_Ionization_Penalty> (1)
  0.0000

>  <r_epik_Ionization_Penalty_Charging> (1)
  0.0000

>  <r_epik_Ionization_Penalty_Neutral> (1)
  0.0000

>  <r_epik_State_Penalty> (1)
  0.0000

>  <r_epik_Charging_Adjusted_Penalty> (1)
0

>  <i_epik_Tot_Q> (1)
0

>  <i_epik_Tot_abs_Q> (1)
0

>  <s_lp_Force_Field> (1)
S-OPLS

>  <r_lp_Energy> (1)
-5.199173

>  <b_lp_Chiralities_Consistent> (1)
1

$$$$
