13621_1,2-dimethyl-3-ethylbenzene
                    3D
 Schrodinger Suite 2021-3.
 24 24  0  0  1  0            999 V2000
   -0.5178    1.5591    0.0576 C   0  0  0  0  0  0
   -0.0244    0.1090   -0.0895 C   0  0  0  0  0  0
    1.4872   -0.0050   -0.0105 C   0  0  0  0  0  0
    2.2105   -0.0831   -1.2085 C   0  0  0  0  0  0
    3.5989   -0.1485   -1.2101 C   0  0  0  0  0  0
    4.2857   -0.1391    0.0008 C   0  0  0  0  0  0
    3.5961   -0.0621    1.2133 C   0  0  0  0  0  0
    2.1849    0.0105    1.2146 C   0  0  0  0  0  0
    1.4692    0.1038    2.5456 C   0  0  0  0  0  0
    4.3684   -0.0559    2.5124 C   0  0  0  0  0  0
   -1.6090    1.6166   -0.0197 H   0  0  0  0  0  0
   -0.0854    2.1917   -0.7243 H   0  0  0  0  0  0
   -0.2226    1.9825    1.0228 H   0  0  0  0  0  0
   -0.5023   -0.5212    0.6693 H   0  0  0  0  0  0
   -0.3579   -0.2840   -1.0566 H   0  0  0  0  0  0
    1.6689   -0.0931   -2.1513 H   0  0  0  0  0  0
    4.1437   -0.2104   -2.1480 H   0  0  0  0  0  0
    5.3716   -0.1926    0.0089 H   0  0  0  0  0  0
    1.7467    1.0212    3.0795 H   0  0  0  0  0  0
    1.7405   -0.7321    3.2012 H   0  0  0  0  0  0
    0.3839    0.1025    2.4459 H   0  0  0  0  0  0
    4.1028   -0.9105    3.1468 H   0  0  0  0  0  0
    4.1651    0.8465    3.1015 H   0  0  0  0  0  0
    5.4456   -0.0996    2.3308 H   0  0  0  0  0  0
  1  2  1  0  0  0
  1 11  1  0  0  0
  1 12  1  0  0  0
  1 13  1  0  0  0
  2  3  1  0  0  0
  2 14  1  0  0  0
  2 15  1  0  0  0
  3  8  1  0  0  0
  3  4  2  0  0  0
  4  5  1  0  0  0
  4 16  1  0  0  0
  5  6  2  0  0  0
  5 17  1  0  0  0
  6  7  1  0  0  0
  6 18  1  0  0  0
  7  8  2  0  0  0
  7 10  1  0  0  0
  8  9  1  0  0  0
  9 19  1  0  0  0
  9 20  1  0  0  0
  9 21  1  0  0  0
 10 22  1  0  0  0
 10 23  1  0  0  0
 10 24  1  0  0  0
M  END
>  <i_m_Spin_multiplicity> (1)
1

>  <s_j_Task> (1)
Single Point

>  <s_j_QM_Method> (1)
DFT(b3lyp-d3)

>  <s_j_QM_Basis> (1)
cc-pvtz(-f)

>  <i_j_Number_of_canonical_orbitals> (1)
348

>  <i_j_Geometry_convergence_category> (1)
2

>  <r_j_Gas_Phase_Energy> (1)
-389.654698934169

>  <r_j_Final_Energy> (1)
-389.654698934169

>  <r_j_HOMO> (1)
-0.238201854355176

>  <r_j_LUMO> (1)
-0.00736603833953041

>  <r_j_Polarizability> (1)
115.01591452368

>  <r_j_QM_Dipole_(debye)> (1)
0.661710069376969

>  <r_j_QM_Dipole_X_(debye)> (1)
-0.29834838867211

>  <r_j_QM_Dipole_Y_(debye)> (1)
0.0703020619447928

>  <r_j_QM_Dipole_Z_(debye)> (1)
0.586435056061573

>  <r_j_Lowest_Frequency_(cm-1)> (1)
110.128458977083

>  <r_j_Highest_Frequency_(cm-1)> (1)
3137.39406431467

>  <r_j_2nd_Lowest_Frequency_(cm-1)> (1)
123.66248030302

>  <i_j_Num_Negative_Frequencies> (1)
0

>  <r_j_Zero_Point_Energy_(kcal/mol)> (1)
132.90366094123

>  <r_j_Entropy_(cal/mol/K)_298.15K_1.00E+00atm> (1)
94.2385812668044

>  <r_j_Enthalpy_(kcal/mol)_298.15K_1.00E+00atm> (1)
6.71145185741232

>  <r_j_Free_Energy_(kcal/mol)_298.15K_1.00E+00atm> (1)
-21.3857811472854

>  <r_j_Internal_Energy_(kcal/mol)_298.15K_1.00E+00atm> (1)
6.11896626858505

>  <r_j_Heat_Capacity_(cal/mol/K)_298.15K_1.00E+00atm> (1)
38.8602034292907

>  <r_j_ln(Q)_298.15K_1.00E+00atm> (1)
36.0950233230397

>  <r_j_Total_Internal_Energy_(au)_298.15K_1.00E+00atm> (1)
-389.433152274148

>  <r_j_Total_Enthalpy_(au)_298.15K_1.00E+00atm> (1)
-389.432208088256

>  <r_j_Total_Free_Energy_(au)_298.15K_1.00E+00atm> (1)
-389.476983879456

>  <r_lp_tautomer_probability> (1)
1

>  <r_epik_Ionization_Penalty> (1)
  0.0000

>  <r_epik_Ionization_Penalty_Charging> (1)
  0.0000

>  <r_epik_Ionization_Penalty_Neutral> (1)
  0.0000

>  <r_epik_State_Penalty> (1)
  0.0000

>  <r_epik_Charging_Adjusted_Penalty> (1)
0

>  <i_epik_Tot_Q> (1)
0

>  <i_epik_Tot_abs_Q> (1)
0

>  <s_lp_Force_Field> (1)
S-OPLS

>  <r_lp_Energy> (1)
9.03235

>  <b_lp_Chiralities_Consistent> (1)
1

$$$$
