136461_1-Penten-3-yne
                    3D
 Schrodinger Suite 2021-3.
 11 10  0  0  1  0            999 V2000
    0.0493   -0.0319    0.0168 C   0  0  0  0  0  0
    1.5080   -0.0121   -0.0003 C   0  0  0  0  0  0
    2.7199    0.0099   -0.0220 C   0  0  0  0  0  0
    4.1446    0.0069   -0.0195 C   0  0  0  0  0  0
    4.9126    0.8190   -0.7617 C   0  0  0  0  0  0
   -0.3602    0.9847    0.0332 H   0  0  0  0  0  0
   -0.3291   -0.5606    0.8988 H   0  0  0  0  0  0
   -0.3488   -0.5364   -0.8715 H   0  0  0  0  0  0
    4.6206   -0.7172    0.6422 H   0  0  0  0  0  0
    4.4806    1.5540   -1.4333 H   0  0  0  0  0  0
    5.9952    0.7631   -0.7107 H   0  0  0  0  0  0
  1  2  1  0  0  0
  1  6  1  0  0  0
  1  7  1  0  0  0
  1  8  1  0  0  0
  2  3  3  0  0  0
  3  4  1  0  0  0
  4  5  2  0  0  0
  4  9  1  0  0  0
  5 10  1  0  0  0
  5 11  1  0  0  0
M  END
>  <i_m_Spin_multiplicity> (1)
1

>  <s_j_Task> (1)
Single Point

>  <s_j_QM_Method> (1)
DFT(b3lyp-d3)

>  <s_j_QM_Basis> (1)
cc-pvtz(-f)

>  <i_j_Number_of_canonical_orbitals> (1)
167

>  <i_j_Geometry_convergence_category> (1)
0

>  <r_j_Gas_Phase_Energy> (1)
-194.132800249791

>  <r_j_Final_Energy> (1)
-194.132800249791

>  <r_j_HOMO> (1)
-0.23488643990212

>  <r_j_LUMO> (1)
-0.0275521982121228

>  <r_j_Polarizability> (1)
61.9799958065842

>  <r_j_QM_Dipole_(debye)> (1)
0.66723803960226

>  <r_j_QM_Dipole_X_(debye)> (1)
-0.666528188068703

>  <r_j_QM_Dipole_Y_(debye)> (1)
-0.0251704670447879

>  <r_j_QM_Dipole_Z_(debye)> (1)
0.0176981239363557

>  <r_j_Lowest_Frequency_(cm-1)> (1)
166.430160779438

>  <r_j_Highest_Frequency_(cm-1)> (1)
3192.80047811365

>  <r_j_2nd_Lowest_Frequency_(cm-1)> (1)
181.082998227753

>  <i_j_Num_Negative_Frequencies> (1)
0

>  <r_j_Zero_Point_Energy_(kcal/mol)> (1)
56.0433398449066

>  <r_j_Entropy_(cal/mol/K)_298.15K_1.00E+00atm> (1)
74.1913844016047

>  <r_j_Enthalpy_(kcal/mol)_298.15K_1.00E+00atm> (1)
4.26359482467104

>  <r_j_Free_Energy_(kcal/mol)_298.15K_1.00E+00atm> (1)
-17.8565664346674

>  <r_j_Internal_Energy_(kcal/mol)_298.15K_1.00E+00atm> (1)
3.67110923584377

>  <r_j_Heat_Capacity_(cal/mol/K)_298.15K_1.00E+00atm> (1)
19.7341565656472

>  <r_j_ln(Q)_298.15K_1.00E+00atm> (1)
30.1383979144733

>  <r_j_Total_Internal_Energy_(au)_298.15K_1.00E+00atm> (1)
-194.037639217272

>  <r_j_Total_Enthalpy_(au)_298.15K_1.00E+00atm> (1)
-194.036695031379

>  <r_j_Total_Free_Energy_(au)_298.15K_1.00E+00atm> (1)
-194.071945752391

>  <r_lp_tautomer_probability> (1)
1

>  <r_epik_Ionization_Penalty> (1)
  0.0000

>  <r_epik_Ionization_Penalty_Charging> (1)
  0.0000

>  <r_epik_Ionization_Penalty_Neutral> (1)
  0.0000

>  <r_epik_State_Penalty> (1)
  0.0000

>  <r_epik_Charging_Adjusted_Penalty> (1)
0

>  <i_epik_Tot_Q> (1)
0

>  <i_epik_Tot_abs_Q> (1)
0

>  <s_lp_Force_Field> (1)
S-OPLS

>  <r_lp_Energy> (1)
-0.3094

>  <b_lp_Chiralities_Consistent> (1)
1

$$$$
