136508_Cis-bicyclo[3.3.0]octane
                    3D
 Schrodinger Suite 2021-3.
 22 23  0  0  1  0            999 V2000
    1.6318    1.0311    0.4285 C   0  0  0  0  0  0
    1.6859   -0.5045    0.5125 C   0  0  0  0  0  0
    0.3162   -0.9633   -0.0385 C   0  0  0  0  0  0
   -0.7917   -1.1184    1.0325 C   0  0  0  0  0  0
   -2.0611   -0.5772    0.3578 C   0  0  0  0  0  0
   -1.5357    0.6540   -0.3956 C   0  0  0  0  0  0
   -0.1737    0.2030   -0.9786 C   0  0  0  0  0  0
    0.9380    1.2758   -0.9231 C   0  0  0  0  0  0
    2.6153    1.5057    0.5048 H   0  0  0  0  0  0
    1.0148    1.4299    1.2445 H   0  0  0  0  0  0
    2.4956   -0.8739   -0.1293 H   0  0  0  0  0  0
    1.8790   -0.8779    1.5242 H   0  0  0  0  0  0
    0.4129   -1.9002   -0.5972 H   0  0  0  0  0  0
   -0.8903   -2.1477    1.3924 H   0  0  0  0  0  0
   -0.5539   -0.4945    1.9051 H   0  0  0  0  0  0
   -2.4522   -1.3156   -0.3548 H   0  0  0  0  0  0
   -2.8655   -0.3458    1.0642 H   0  0  0  0  0  0
   -2.2221    1.0249   -1.1638 H   0  0  0  0  0  0
   -1.3802    1.4740    0.3190 H   0  0  0  0  0  0
   -0.3203   -0.1567   -2.0026 H   0  0  0  0  0  0
    0.5469    2.2932   -1.0331 H   0  0  0  0  0  0
    1.6595    1.1165   -1.7344 H   0  0  0  0  0  0
  1  8  1  0  0  0
  1  2  1  0  0  0
  1  9  1  0  0  0
  1 10  1  0  0  0
  2  3  1  0  0  0
  2 11  1  0  0  0
  2 12  1  0  0  0
  3  7  1  0  0  0
  3  4  1  0  0  0
  3 13  1  0  0  0
  4  5  1  0  0  0
  4 14  1  0  0  0
  4 15  1  0  0  0
  5  6  1  0  0  0
  5 16  1  0  0  0
  5 17  1  0  0  0
  6  7  1  0  0  0
  6 18  1  0  0  0
  6 19  1  0  0  0
  7  8  1  0  0  0
  7 20  1  0  0  0
  8 21  1  0  0  0
  8 22  1  0  0  0
M  END
>  <i_m_Spin_multiplicity> (1)
1

>  <s_j_Task> (1)
Single Point

>  <s_j_QM_Method> (1)
DFT(b3lyp-d3)

>  <s_j_QM_Basis> (1)
cc-pvtz(-f)

>  <i_j_Number_of_canonical_orbitals> (1)
307

>  <i_j_Geometry_convergence_category> (1)
3

>  <r_j_Gas_Phase_Energy> (1)
-313.409651316679

>  <r_j_Final_Energy> (1)
-313.409651316679

>  <r_j_HOMO> (1)
-0.305461940344533

>  <r_j_LUMO> (1)
0.0283759982098559

>  <r_j_Polarizability> (1)
87.8898312244845

>  <r_j_QM_Dipole_(debye)> (1)
0.105225790612838

>  <r_j_QM_Dipole_X_(debye)> (1)
0.0097370841565937

>  <r_j_QM_Dipole_Y_(debye)> (1)
-0.0632497447594394

>  <r_j_QM_Dipole_Z_(debye)> (1)
-0.0835291924424629

>  <r_j_Lowest_Frequency_(cm-1)> (1)
139.832841907961

>  <r_j_Highest_Frequency_(cm-1)> (1)
3040.68122697829

>  <r_j_2nd_Lowest_Frequency_(cm-1)> (1)
216.794683230101

>  <i_j_Num_Negative_Frequencies> (1)
0

>  <r_j_Zero_Point_Energy_(kcal/mol)> (1)
128.48490917393

>  <r_j_Entropy_(cal/mol/K)_298.15K_1.00E+00atm> (1)
80.2146373532346

>  <r_j_Enthalpy_(kcal/mol)_298.15K_1.00E+00atm> (1)
4.76906572336138

>  <r_j_Free_Energy_(kcal/mol)_298.15K_1.00E+00atm> (1)
-19.1469284035055

>  <r_j_Internal_Energy_(kcal/mol)_298.15K_1.00E+00atm> (1)
4.1765801345341

>  <r_j_Heat_Capacity_(cal/mol/K)_298.15K_1.00E+00atm> (1)
28.126027246996

>  <r_j_ln(Q)_298.15K_1.00E+00atm> (1)
32.3162769940171

>  <r_j_Total_Internal_Energy_(au)_298.15K_1.00E+00atm> (1)
-313.198241775229

>  <r_j_Total_Enthalpy_(au)_298.15K_1.00E+00atm> (1)
-313.197297589337

>  <r_j_Total_Free_Energy_(au)_298.15K_1.00E+00atm> (1)
-313.235410152207

>  <r_lp_tautomer_probability> (1)
1

>  <r_epik_Ionization_Penalty> (1)
  0.0000

>  <r_epik_Ionization_Penalty_Charging> (1)
  0.0000

>  <r_epik_Ionization_Penalty_Neutral> (1)
  0.0000

>  <r_epik_State_Penalty> (1)
  0.0000

>  <r_epik_Charging_Adjusted_Penalty> (1)
0

>  <i_epik_Tot_Q> (1)
0

>  <i_epik_Tot_abs_Q> (1)
0

>  <s_lp_Force_Field> (1)
S-OPLS

>  <r_lp_Energy> (1)
6.23046

>  <b_lp_Chiralities_Consistent> (1)
1

$$$$
