136729_1-ethyl-2-methylcyclopentane
                    3D
 Schrodinger Suite 2021-3.
 24 24  0  0  1  0            999 V2000
   -0.5889    1.4650   -0.0375 C   0  0  0  0  0  0
   -0.0114    0.0453   -0.0231 C   0  0  0  0  0  0
    1.5191    0.0067    0.0241 C   0  0  0  0  0  0
    2.1347    0.6489    1.2905 C   0  0  0  0  0  0
    3.5105   -0.0489    1.5040 C   0  0  0  0  0  0
    3.5928   -1.1470    0.4163 C   0  0  0  0  0  0
    2.1338   -1.4097    0.0044 C   0  0  0  0  0  0
    1.9851   -2.1610   -1.3175 C   0  0  0  0  0  0
   -1.6818    1.4513   -0.1010 H   0  0  0  0  0  0
   -0.2118    2.0322   -0.8966 H   0  0  0  0  0  0
   -0.3153    2.0168    0.8680 H   0  0  0  0  0  0
   -0.4047   -0.5039    0.8444 H   0  0  0  0  0  0
   -0.3624   -0.4936   -0.9125 H   0  0  0  0  0  0
    1.9042    0.5403   -0.8607 H   0  0  0  0  0  0
    2.2244    1.7355    1.2000 H   0  0  0  0  0  0
    1.4753    0.4607    2.1475 H   0  0  0  0  0  0
    4.3460    0.6540    1.4304 H   0  0  0  0  0  0
    3.5632   -0.4909    2.5044 H   0  0  0  0  0  0
    4.1439   -0.7750   -0.4582 H   0  0  0  0  0  0
    4.1085   -2.0515    0.7561 H   0  0  0  0  0  0
    1.6476   -1.9953    0.8017 H   0  0  0  0  0  0
    2.4373   -1.5911   -2.1386 H   0  0  0  0  0  0
    0.9340   -2.3352   -1.5708 H   0  0  0  0  0  0
    2.4809   -3.1370   -1.2770 H   0  0  0  0  0  0
  1  2  1  0  0  0
  1  9  1  0  0  0
  1 10  1  0  0  0
  1 11  1  0  0  0
  2  3  1  0  0  0
  2 12  1  0  0  0
  2 13  1  0  0  0
  3  7  1  0  0  0
  3  4  1  0  0  0
  3 14  1  0  0  0
  4  5  1  0  0  0
  4 15  1  0  0  0
  4 16  1  0  0  0
  5  6  1  0  0  0
  5 17  1  0  0  0
  5 18  1  0  0  0
  6  7  1  0  0  0
  6 19  1  0  0  0
  6 20  1  0  0  0
  7  8  1  0  0  0
  7 21  1  0  0  0
  8 22  1  0  0  0
  8 23  1  0  0  0
  8 24  1  0  0  0
M  END
>  <i_m_Spin_multiplicity> (1)
1

>  <s_j_Task> (1)
Single Point

>  <s_j_QM_Method> (1)
DFT(b3lyp-d3)

>  <s_j_QM_Basis> (1)
cc-pvtz(-f)

>  <i_j_Number_of_canonical_orbitals> (1)
325

>  <i_j_Geometry_convergence_category> (1)
1

>  <r_j_Gas_Phase_Energy> (1)
-314.625710559036

>  <r_j_Final_Energy> (1)
-314.625710559036

>  <r_j_HOMO> (1)
-0.304933773408973

>  <r_j_LUMO> (1)
0.0251945693634808

>  <r_j_Polarizability> (1)
93.5674444667105

>  <r_j_QM_Dipole_(debye)> (1)
0.0603251028545763

>  <r_j_QM_Dipole_X_(debye)> (1)
-0.0180350797201157

>  <r_j_QM_Dipole_Y_(debye)> (1)
-0.0556631392279143

>  <r_j_QM_Dipole_Z_(debye)> (1)
0.0146788577620369

>  <r_j_Lowest_Frequency_(cm-1)> (1)
126.335418839934

>  <r_j_Highest_Frequency_(cm-1)> (1)
3050.63623083399

>  <r_j_2nd_Lowest_Frequency_(cm-1)> (1)
137.53221148776

>  <i_j_Num_Negative_Frequencies> (1)
0

>  <r_j_Zero_Point_Energy_(kcal/mol)> (1)
140.933526565209

>  <r_j_Entropy_(cal/mol/K)_298.15K_1.00E+00atm> (1)
89.0584563340573

>  <r_j_Enthalpy_(kcal/mol)_298.15K_1.00E+00atm> (1)
6.02621488589564

>  <r_j_Free_Energy_(kcal/mol)_298.15K_1.00E+00atm> (1)
-20.5265638701036

>  <r_j_Internal_Energy_(kcal/mol)_298.15K_1.00E+00atm> (1)
5.43372929706836

>  <r_j_Heat_Capacity_(cal/mol/K)_298.15K_1.00E+00atm> (1)
33.9521442836309

>  <r_j_ln(Q)_298.15K_1.00E+00atm> (1)
34.6448323084658

>  <r_j_Total_Internal_Energy_(au)_298.15K_1.00E+00atm> (1)
-314.39245948816

>  <r_j_Total_Enthalpy_(au)_298.15K_1.00E+00atm> (1)
-314.391515302268

>  <r_j_Total_Free_Energy_(au)_298.15K_1.00E+00atm> (1)
-314.433829848941

>  <r_lp_tautomer_probability> (1)
1

>  <r_epik_Ionization_Penalty> (1)
  0.0000

>  <r_epik_Ionization_Penalty_Charging> (1)
  0.0000

>  <r_epik_Ionization_Penalty_Neutral> (1)
  0.0000

>  <r_epik_State_Penalty> (1)
  0.0000

>  <r_epik_Charging_Adjusted_Penalty> (1)
0

>  <i_epik_Tot_Q> (1)
0

>  <i_epik_Tot_abs_Q> (1)
0

>  <s_lp_Force_Field> (1)
S-OPLS

>  <r_lp_Energy> (1)
7.32464

>  <b_lp_Chiralities_Consistent> (1)
1

$$$$
