136827_4,4-dimethylheptane
                    3D
 Schrodinger Suite 2021-3.
 29 28  0  0  1  0            999 V2000
   -2.1846    1.4716    0.0366 C   0  0  0  0  0  0
   -0.6539    1.5266    0.0917 C   0  0  0  0  0  0
   -0.0232    0.1326   -0.0398 C   0  0  0  0  0  0
    1.5259    0.0584   -0.0505 C   0  0  0  0  0  0
    2.0992    0.7971   -1.2768 C   0  0  0  0  0  0
    2.1024    0.6970    1.2295 C   0  0  0  0  0  0
    1.9737   -1.4291   -0.0675 C   0  0  0  0  0  0
    1.5381   -2.2878   -1.2634 C   0  0  0  0  0  0
    2.0893   -3.7154   -1.1755 C   0  0  0  0  0  0
   -2.6269    2.4685    0.1357 H   0  0  0  0  0  0
   -2.5859    0.8467    0.8430 H   0  0  0  0  0  0
   -2.5307    1.0454   -0.9123 H   0  0  0  0  0  0
   -0.2881    2.1808   -0.7094 H   0  0  0  0  0  0
   -0.3457    1.9932    1.0347 H   0  0  0  0  0  0
   -0.3937   -0.4963    0.7833 H   0  0  0  0  0  0
   -0.4039   -0.3239   -0.9627 H   0  0  0  0  0  0
    3.1838    0.6535   -1.3433 H   0  0  0  0  0  0
    1.9146    1.8740   -1.2162 H   0  0  0  0  0  0
    1.6555    0.4387   -2.2113 H   0  0  0  0  0  0
    3.1915    0.5790    1.2646 H   0  0  0  0  0  0
    1.6861    0.2258    2.1276 H   0  0  0  0  0  0
    1.8879    1.7686    1.2821 H   0  0  0  0  0  0
    3.0716   -1.4528   -0.0087 H   0  0  0  0  0  0
    1.6145   -1.9085    0.8550 H   0  0  0  0  0  0
    0.4440   -2.3293   -1.3210 H   0  0  0  0  0  0
    1.8784   -1.8281   -2.1992 H   0  0  0  0  0  0
    1.7718   -4.3223   -2.0299 H   0  0  0  0  0  0
    1.7442   -4.2161   -0.2634 H   0  0  0  0  0  0
    3.1854   -3.7145   -1.1551 H   0  0  0  0  0  0
  1  2  1  0  0  0
  1 10  1  0  0  0
  1 11  1  0  0  0
  1 12  1  0  0  0
  2  3  1  0  0  0
  2 13  1  0  0  0
  2 14  1  0  0  0
  3  4  1  0  0  0
  3 15  1  0  0  0
  3 16  1  0  0  0
  4  5  1  0  0  0
  4  6  1  0  0  0
  4  7  1  0  0  0
  5 17  1  0  0  0
  5 18  1  0  0  0
  5 19  1  0  0  0
  6 20  1  0  0  0
  6 21  1  0  0  0
  6 22  1  0  0  0
  7  8  1  0  0  0
  7 23  1  0  0  0
  7 24  1  0  0  0
  8  9  1  0  0  0
  8 25  1  0  0  0
  8 26  1  0  0  0
  9 27  1  0  0  0
  9 28  1  0  0  0
  9 29  1  0  0  0
M  END
>  <i_m_Spin_multiplicity> (1)
1

>  <s_j_Task> (1)
Single Point

>  <s_j_QM_Method> (1)
DFT(b3lyp-d3)

>  <s_j_QM_Basis> (1)
cc-pvtz(-f)

>  <i_j_Number_of_canonical_orbitals> (1)
385

>  <i_j_Geometry_convergence_category> (1)
3

>  <r_j_Gas_Phase_Energy> (1)
-355.169556417374

>  <r_j_Final_Energy> (1)
-355.169556417374

>  <r_j_HOMO> (1)
-0.300835657432965

>  <r_j_LUMO> (1)
0.0260700558959365

>  <r_j_Polarizability> (1)
110.88007268386

>  <r_j_QM_Dipole_(debye)> (1)
0.0879195184270165

>  <r_j_QM_Dipole_X_(debye)> (1)
-0.0285938523495206

>  <r_j_QM_Dipole_Y_(debye)> (1)
0.0619072756665469

>  <r_j_QM_Dipole_Z_(debye)> (1)
-0.0554952479749255

>  <r_j_Lowest_Frequency_(cm-1)> (1)
104.796884987254

>  <r_j_Highest_Frequency_(cm-1)> (1)
3054.84088679183

>  <r_j_2nd_Lowest_Frequency_(cm-1)> (1)
123.220060594102

>  <i_j_Num_Negative_Frequencies> (1)
0

>  <r_j_Zero_Point_Energy_(kcal/mol)> (1)
171.528550183477

>  <r_j_Entropy_(cal/mol/K)_298.15K_1.00E+00atm> (1)
101.242464714129

>  <r_j_Enthalpy_(kcal/mol)_298.15K_1.00E+00atm> (1)
7.75799323763188

>  <r_j_Free_Energy_(kcal/mol)_298.15K_1.00E+00atm> (1)
-22.4274476168858

>  <r_j_Internal_Energy_(kcal/mol)_298.15K_1.00E+00atm> (1)
7.1655076488046

>  <r_j_Heat_Capacity_(cal/mol/K)_298.15K_1.00E+00atm> (1)
44.28125647042

>  <r_j_ln(Q)_298.15K_1.00E+00atm> (1)
37.853152953943

>  <r_j_Total_Internal_Energy_(au)_298.15K_1.00E+00atm> (1)
-354.884789308071

>  <r_j_Total_Enthalpy_(au)_298.15K_1.00E+00atm> (1)
-354.883845122179

>  <r_j_Total_Free_Energy_(au)_298.15K_1.00E+00atm> (1)
-354.931948684432

>  <r_lp_tautomer_probability> (1)
1

>  <r_epik_Ionization_Penalty> (1)
  0.0000

>  <r_epik_Ionization_Penalty_Charging> (1)
  0.0000

>  <r_epik_Ionization_Penalty_Neutral> (1)
  0.0000

>  <r_epik_State_Penalty> (1)
  0.0000

>  <r_epik_Charging_Adjusted_Penalty> (1)
0

>  <i_epik_Tot_Q> (1)
0

>  <i_epik_Tot_abs_Q> (1)
0

>  <s_lp_Force_Field> (1)
S-OPLS

>  <r_lp_Energy> (1)
7.82309

>  <b_lp_Chiralities_Consistent> (1)
1

$$$$
