137658_2,4,6-Trimethylheptane
                    3D
 Schrodinger Suite 2021-3.
 32 31  0  0  1  0            999 V2000
   -0.0667    2.4799    1.0511 C   0  0  0  0  0  0
   -0.6083    1.5346   -0.0305 C   0  0  0  0  0  0
   -2.1394    1.4478    0.0491 C   0  0  0  0  0  0
    0.0042    0.1235    0.0699 C   0  0  0  0  0  0
    1.5412    0.0246    0.0051 C   0  0  0  0  0  0
    2.1102    0.7051   -1.2494 C   0  0  0  0  0  0
    2.0140   -1.4435    0.0526 C   0  0  0  0  0  0
    1.5593   -2.2932    1.2558 C   0  0  0  0  0  0
    1.9510   -1.6588    2.5976 C   0  0  0  0  0  0
    2.1343   -3.7125    1.1414 C   0  0  0  0  0  0
   -0.2569    2.0714    2.0516 H   0  0  0  0  0  0
   -0.5518    3.4605    0.9950 H   0  0  0  0  0  0
    1.0118    2.6385    0.9560 H   0  0  0  0  0  0
   -0.3516    1.9567   -1.0117 H   0  0  0  0  0  0
   -2.4563    1.0478    1.0205 H   0  0  0  0  0  0
   -2.5437    0.7903   -0.7286 H   0  0  0  0  0  0
   -2.6009    2.4341   -0.0703 H   0  0  0  0  0  0
   -0.3438   -0.3228    1.0114 H   0  0  0  0  0  0
   -0.4161   -0.4994   -0.7340 H   0  0  0  0  0  0
    1.9580    0.5405    0.8803 H   0  0  0  0  0  0
    1.6729    0.2729   -2.1581 H   0  0  0  0  0  0
    3.1961    0.5730   -1.3083 H   0  0  0  0  0  0
    1.9080    1.7802   -1.2618 H   0  0  0  0  0  0
    1.6856   -1.9430   -0.8710 H   0  0  0  0  0  0
    3.1138   -1.4525    0.0251 H   0  0  0  0  0  0
    0.4643   -2.3784    1.2271 H   0  0  0  0  0  0
    3.0360   -1.5048    2.6505 H   0  0  0  0  0  0
    1.6654   -2.3040    3.4356 H   0  0  0  0  0  0
    1.4693   -0.6877    2.7488 H   0  0  0  0  0  0
    3.2306   -3.6926    1.1813 H   0  0  0  0  0  0
    1.8449   -4.1860    0.1967 H   0  0  0  0  0  0
    1.7835   -4.3510    1.9595 H   0  0  0  0  0  0
  1  2  1  0  0  0
  1 11  1  0  0  0
  1 12  1  0  0  0
  1 13  1  0  0  0
  2  3  1  0  0  0
  2  4  1  0  0  0
  2 14  1  0  0  0
  3 15  1  0  0  0
  3 16  1  0  0  0
  3 17  1  0  0  0
  4  5  1  0  0  0
  4 18  1  0  0  0
  4 19  1  0  0  0
  5  6  1  0  0  0
  5  7  1  0  0  0
  5 20  1  0  0  0
  6 21  1  0  0  0
  6 22  1  0  0  0
  6 23  1  0  0  0
  7  8  1  0  0  0
  7 24  1  0  0  0
  7 25  1  0  0  0
  8  9  1  0  0  0
  8 10  1  0  0  0
  8 26  1  0  0  0
  9 27  1  0  0  0
  9 28  1  0  0  0
  9 29  1  0  0  0
 10 30  1  0  0  0
 10 31  1  0  0  0
 10 32  1  0  0  0
M  END
>  <i_m_Spin_multiplicity> (1)
1

>  <s_j_Task> (1)
Single Point

>  <s_j_QM_Method> (1)
DFT(b3lyp-d3)

>  <s_j_QM_Basis> (1)
cc-pvtz(-f)

>  <i_j_Number_of_canonical_orbitals> (1)
425

>  <i_j_Geometry_convergence_category> (1)
3

>  <r_j_Gas_Phase_Energy> (1)
-394.501707143818

>  <r_j_Final_Energy> (1)
-394.501707143818

>  <r_j_HOMO> (1)
-0.302400999710767

>  <r_j_LUMO> (1)
0.0136323452937866

>  <r_j_Polarizability> (1)
122.569988210773

>  <r_j_QM_Dipole_(debye)> (1)
0.090341552233202

>  <r_j_QM_Dipole_X_(debye)> (1)
-0.0501365388677682

>  <r_j_QM_Dipole_Y_(debye)> (1)
0.0666667120198249

>  <r_j_QM_Dipole_Z_(debye)> (1)
-0.0346911089291028

>  <r_j_Lowest_Frequency_(cm-1)> (1)
81.0310392711255

>  <r_j_Highest_Frequency_(cm-1)> (1)
3054.21731733596

>  <r_j_2nd_Lowest_Frequency_(cm-1)> (1)
90.9732169667796

>  <i_j_Num_Negative_Frequencies> (1)
0

>  <r_j_Zero_Point_Energy_(kcal/mol)> (1)
189.416758734378

>  <r_j_Entropy_(cal/mol/K)_298.15K_1.00E+00atm> (1)
106.190912041288

>  <r_j_Enthalpy_(kcal/mol)_298.15K_1.00E+00atm> (1)
8.43320205241001

>  <r_j_Free_Energy_(kcal/mol)_298.15K_1.00E+00atm> (1)
-23.2276183727

>  <r_j_Internal_Energy_(kcal/mol)_298.15K_1.00E+00atm> (1)
7.84071646358273

>  <r_j_Heat_Capacity_(cal/mol/K)_298.15K_1.00E+00atm> (1)
49.0326453256589

>  <r_j_ln(Q)_298.15K_1.00E+00atm> (1)
39.2036849683976

>  <r_j_Total_Internal_Energy_(au)_298.15K_1.00E+00atm> (1)
-394.187357345722

>  <r_j_Total_Enthalpy_(au)_298.15K_1.00E+00atm> (1)
-394.18641315983

>  <r_j_Total_Free_Energy_(au)_298.15K_1.00E+00atm> (1)
-394.236867889103

>  <r_lp_tautomer_probability> (1)
1

>  <r_epik_Ionization_Penalty> (1)
  0.0000

>  <r_epik_Ionization_Penalty_Charging> (1)
  0.0000

>  <r_epik_Ionization_Penalty_Neutral> (1)
  0.0000

>  <r_epik_State_Penalty> (1)
  0.0000

>  <r_epik_Charging_Adjusted_Penalty> (1)
0

>  <i_epik_Tot_Q> (1)
0

>  <i_epik_Tot_abs_Q> (1)
0

>  <s_lp_Force_Field> (1)
S-OPLS

>  <r_lp_Energy> (1)
5.63131

>  <b_lp_Chiralities_Consistent> (1)
1

$$$$
