137816_Trimethylhexene
                    3D
 Schrodinger Suite 2021-3.
 27 26  0  0  1  0            999 V2000
   -2.5693    2.9915    0.0791 C   0  0  0  0  0  0
   -2.0422    1.5607   -0.0648 C   0  0  0  0  0  0
   -0.5169    1.4704    0.0551 C   0  0  0  0  0  0
    0.0200    0.0325   -0.0755 C   0  0  0  0  0  0
    1.5386   -0.0370   -0.0259 C   0  0  0  0  0  0
    2.2280   -0.1130    1.1301 C   0  0  0  0  0  0
    3.7357   -0.1718    1.2294 C   0  0  0  0  0  0
    1.5686   -0.1403    2.4920 C   0  0  0  0  0  0
    2.1700    0.0328   -1.3984 C   0  0  0  0  0  0
   -3.6602    3.0305   -0.0085 H   0  0  0  0  0  0
   -2.1487    3.6455   -0.6935 H   0  0  0  0  0  0
   -2.2971    3.4152    1.0527 H   0  0  0  0  0  0
   -2.5026    0.9198    0.6999 H   0  0  0  0  0  0
   -2.3543    1.1479   -1.0339 H   0  0  0  0  0  0
   -0.0512    2.1045   -0.7121 H   0  0  0  0  0  0
   -0.1976    1.8834    1.0210 H   0  0  0  0  0  0
   -0.4354   -0.5915    0.7013 H   0  0  0  0  0  0
   -0.3252   -0.3851   -1.0310 H   0  0  0  0  0  0
    4.1193    0.6843    1.8011 H   0  0  0  0  0  0
    4.2466   -0.1841    0.2664 H   0  0  0  0  0  0
    4.0457   -1.0709    1.7789 H   0  0  0  0  0  0
    1.9223    0.7021    3.1016 H   0  0  0  0  0  0
    1.8445   -1.0519    3.0393 H   0  0  0  0  0  0
    0.4800   -0.0858    2.4601 H   0  0  0  0  0  0
    1.9376   -0.8719   -1.9764 H   0  0  0  0  0  0
    3.2537    0.1529   -1.3887 H   0  0  0  0  0  0
    1.7513    0.8751   -1.9645 H   0  0  0  0  0  0
  1  2  1  0  0  0
  1 10  1  0  0  0
  1 11  1  0  0  0
  1 12  1  0  0  0
  2  3  1  0  0  0
  2 13  1  0  0  0
  2 14  1  0  0  0
  3  4  1  0  0  0
  3 15  1  0  0  0
  3 16  1  0  0  0
  4  5  1  0  0  0
  4 17  1  0  0  0
  4 18  1  0  0  0
  5  6  2  0  0  0
  5  9  1  0  0  0
  6  7  1  0  0  0
  6  8  1  0  0  0
  7 19  1  0  0  0
  7 20  1  0  0  0
  7 21  1  0  0  0
  8 22  1  0  0  0
  8 23  1  0  0  0
  8 24  1  0  0  0
  9 25  1  0  0  0
  9 26  1  0  0  0
  9 27  1  0  0  0
M  END
>  <i_m_Spin_multiplicity> (1)
1

>  <s_j_Task> (1)
Single Point

>  <s_j_QM_Method> (1)
DFT(b3lyp-d3)

>  <s_j_QM_Basis> (1)
cc-pvtz(-f)

>  <i_j_Number_of_canonical_orbitals> (1)
365

>  <i_j_Geometry_convergence_category> (1)
3

>  <r_j_Gas_Phase_Energy> (1)
-353.938819698938

>  <r_j_Final_Energy> (1)
-353.938819698938

>  <r_j_HOMO> (1)
-0.225798736146898

>  <r_j_LUMO> (1)
0.0184909205102009

>  <r_j_Polarizability> (1)
112.071198937658

>  <r_j_QM_Dipole_(debye)> (1)
0.0287065957400893

>  <r_j_QM_Dipole_X_(debye)> (1)
-0.0257073395328756

>  <r_j_QM_Dipole_Y_(debye)> (1)
0.0127736076641175

>  <r_j_QM_Dipole_Z_(debye)> (1)
0.000190474065318897

>  <r_j_Lowest_Frequency_(cm-1)> (1)
73.1012381770864

>  <r_j_Highest_Frequency_(cm-1)> (1)
3097.78925014778

>  <r_j_2nd_Lowest_Frequency_(cm-1)> (1)
105.076790175743

>  <i_j_Num_Negative_Frequencies> (1)
0

>  <r_j_Zero_Point_Energy_(kcal/mol)> (1)
156.427083876007

>  <r_j_Entropy_(cal/mol/K)_298.15K_1.00E+00atm> (1)
101.475309919108

>  <r_j_Enthalpy_(kcal/mol)_298.15K_1.00E+00atm> (1)
7.72274529259211

>  <r_j_Free_Energy_(kcal/mol)_298.15K_1.00E+00atm> (1)
-22.5321183597898

>  <r_j_Internal_Energy_(kcal/mol)_298.15K_1.00E+00atm> (1)
7.13025970376483

>  <r_j_Heat_Capacity_(cal/mol/K)_298.15K_1.00E+00atm> (1)
42.9642305859276

>  <r_j_ln(Q)_298.15K_1.00E+00atm> (1)
38.0298167325696

>  <r_j_Total_Internal_Energy_(au)_298.15K_1.00E+00atm> (1)
-353.678174479385

>  <r_j_Total_Enthalpy_(au)_298.15K_1.00E+00atm> (1)
-353.677230293493

>  <r_j_Total_Free_Energy_(au)_298.15K_1.00E+00atm> (1)
-353.725444488017

>  <r_lp_tautomer_probability> (1)
1

>  <r_epik_Ionization_Penalty> (1)
  0.0000

>  <r_epik_Ionization_Penalty_Charging> (1)
  0.0000

>  <r_epik_Ionization_Penalty_Neutral> (1)
  0.0000

>  <r_epik_State_Penalty> (1)
  0.0000

>  <r_epik_Charging_Adjusted_Penalty> (1)
0

>  <i_epik_Tot_Q> (1)
0

>  <i_epik_Tot_abs_Q> (1)
0

>  <s_lp_Force_Field> (1)
S-OPLS

>  <r_lp_Energy> (1)
0.04177

>  <b_lp_Chiralities_Consistent> (1)
1

$$$$
