137923_trans-4-Methyl-2-heptene
                    3D
 Schrodinger Suite 2021-3.
 24 23  0  0  1  0            999 V2000
   -2.1815    1.3527    0.0040 C   0  0  0  0  0  0
   -0.6515    1.4035   -0.0298 C   0  0  0  0  0  0
   -0.0091    0.0137    0.0361 C   0  0  0  0  0  0
    1.5353    0.0294    0.0067 C   0  0  0  0  0  0
    2.0903   -1.4030   -0.0982 C   0  0  0  0  0  0
    2.0982    0.7218    1.2223 C   0  0  0  0  0  0
    2.8317    1.8366    1.2185 C   0  0  0  0  0  0
    3.3895    2.5132    2.4380 C   0  0  0  0  0  0
   -2.6185    2.3553   -0.0491 H   0  0  0  0  0  0
   -2.5395    0.8818    0.9269 H   0  0  0  0  0  0
   -2.5780    0.7711   -0.8365 H   0  0  0  0  0  0
   -0.3188    1.9087   -0.9471 H   0  0  0  0  0  0
   -0.2795    2.0138    0.8018 H   0  0  0  0  0  0
   -0.3422   -0.5017    0.9494 H   0  0  0  0  0  0
   -0.3728   -0.5942   -0.8042 H   0  0  0  0  0  0
    1.8507    0.5878   -0.8866 H   0  0  0  0  0  0
    3.1830   -1.3992   -0.1539 H   0  0  0  0  0  0
    1.7019   -1.9126   -0.9869 H   0  0  0  0  0  0
    1.8023   -1.9959    0.7784 H   0  0  0  0  0  0
    1.8678    0.2441    2.1784 H   0  0  0  0  0  0
    3.0562    2.3106    0.2615 H   0  0  0  0  0  0
    4.4843    2.5772    2.3922 H   0  0  0  0  0  0
    3.1202    1.9784    3.3544 H   0  0  0  0  0  0
    3.0196    3.5429    2.5254 H   0  0  0  0  0  0
  1  2  1  0  0  0
  1  9  1  0  0  0
  1 10  1  0  0  0
  1 11  1  0  0  0
  2  3  1  0  0  0
  2 12  1  0  0  0
  2 13  1  0  0  0
  3  4  1  0  0  0
  3 14  1  0  0  0
  3 15  1  0  0  0
  4  5  1  0  0  0
  4  6  1  0  0  0
  4 16  1  0  0  0
  5 17  1  0  0  0
  5 18  1  0  0  0
  5 19  1  0  0  0
  6  7  2  0  0  0
  6 20  1  0  0  0
  7  8  1  0  0  0
  7 21  1  0  0  0
  8 22  1  0  0  0
  8 23  1  0  0  0
  8 24  1  0  0  0
M  END
>  <i_m_Spin_multiplicity> (1)
1

>  <s_j_Task> (1)
Single Point

>  <s_j_QM_Method> (1)
DFT(b3lyp-d3)

>  <s_j_QM_Basis> (1)
cc-pvtz(-f)

>  <i_j_Number_of_canonical_orbitals> (1)
325

>  <i_j_Geometry_convergence_category> (1)
0

>  <r_j_Gas_Phase_Energy> (1)
-314.608606445088

>  <r_j_Final_Energy> (1)
-314.608606445088

>  <r_j_HOMO> (1)
-0.244819685010677

>  <r_j_LUMO> (1)
0.0160541635720312

>  <r_j_Polarizability> (1)
99.7671333916797

>  <r_j_QM_Dipole_(debye)> (1)
0.20028803607462

>  <r_j_QM_Dipole_X_(debye)> (1)
0.129976314076075

>  <r_j_QM_Dipole_Y_(debye)> (1)
0.152372407049427

>  <r_j_QM_Dipole_Z_(debye)> (1)
0.00202601672981906

>  <r_j_Lowest_Frequency_(cm-1)> (1)
83.391193020744

>  <r_j_Highest_Frequency_(cm-1)> (1)
3076.88003953852

>  <r_j_2nd_Lowest_Frequency_(cm-1)> (1)
132.706759989623

>  <i_j_Num_Negative_Frequencies> (1)
0

>  <r_j_Zero_Point_Energy_(kcal/mol)> (1)
138.816963219006

>  <r_j_Entropy_(cal/mol/K)_298.15K_1.00E+00atm> (1)
95.2150943891265

>  <r_j_Enthalpy_(kcal/mol)_298.15K_1.00E+00atm> (1)
6.84635291231918

>  <r_j_Free_Energy_(kcal/mol)_298.15K_1.00E+00atm> (1)
-21.5420274797989

>  <r_j_Internal_Energy_(kcal/mol)_298.15K_1.00E+00atm> (1)
6.2538673234919

>  <r_j_Heat_Capacity_(cal/mol/K)_298.15K_1.00E+00atm> (1)
37.4244663721587

>  <r_j_ln(Q)_298.15K_1.00E+00atm> (1)
36.3587366275654

>  <r_j_Total_Internal_Energy_(au)_298.15K_1.00E+00atm> (1)
-314.377421359478

>  <r_j_Total_Enthalpy_(au)_298.15K_1.00E+00atm> (1)
-314.376477173586

>  <r_j_Total_Free_Energy_(au)_298.15K_1.00E+00atm> (1)
-314.421716937684

>  <r_lp_tautomer_probability> (1)
1

>  <r_epik_Ionization_Penalty> (1)
  0.0000

>  <r_epik_Ionization_Penalty_Charging> (1)
  0.0000

>  <r_epik_Ionization_Penalty_Neutral> (1)
  0.0000

>  <r_epik_State_Penalty> (1)
  0.0000

>  <r_epik_Charging_Adjusted_Penalty> (1)
0

>  <i_epik_Tot_Q> (1)
0

>  <i_epik_Tot_abs_Q> (1)
0

>  <s_lp_Force_Field> (1)
S-OPLS

>  <r_lp_Energy> (1)
-1.093311

>  <b_lp_Chiralities_Consistent> (1)
1

$$$$
