138074_3-methyl-cis-3-hexene
                    3D
 Schrodinger Suite 2021-3.
 21 20  0  0  1  0            999 V2000
   -0.4792    1.2399    0.2878 C   0  0  0  0  0  0
    0.0119    0.1370   -0.6672 C   0  0  0  0  0  0
    1.4950   -0.0907   -0.5479 C   0  0  0  0  0  0
    2.1458   -1.1571   -0.0588 C   0  0  0  0  0  0
    1.4741   -2.4074    0.4564 C   0  0  0  0  0  0
    3.6608   -1.1585    0.0207 C   0  0  0  0  0  0
    4.1999   -1.0630    1.4594 C   0  0  0  0  0  0
   -1.5488    1.4346    0.1549 H   0  0  0  0  0  0
    0.0574    2.1792    0.1130 H   0  0  0  0  0  0
   -0.3096    0.9523    1.3305 H   0  0  0  0  0  0
   -0.5504   -0.7830   -0.4790 H   0  0  0  0  0  0
   -0.2228    0.4329   -1.6995 H   0  0  0  0  0  0
    2.1020    0.7541   -0.8800 H   0  0  0  0  0  0
    1.8502   -3.2917   -0.0744 H   0  0  0  0  0  0
    0.3883   -2.3877    0.3479 H   0  0  0  0  0  0
    1.6961   -2.5650    1.5189 H   0  0  0  0  0  0
    4.0498   -2.0768   -0.4431 H   0  0  0  0  0  0
    4.0592   -0.3220   -0.5650 H   0  0  0  0  0  0
    5.2948   -1.0442    1.4668 H   0  0  0  0  0  0
    3.8810   -1.9137    2.0701 H   0  0  0  0  0  0
    3.8401   -0.1497    1.9444 H   0  0  0  0  0  0
  1  2  1  0  0  0
  1  8  1  0  0  0
  1  9  1  0  0  0
  1 10  1  0  0  0
  2  3  1  0  0  0
  2 11  1  0  0  0
  2 12  1  0  0  0
  3  4  2  0  0  0
  3 13  1  0  0  0
  4  5  1  0  0  0
  4  6  1  0  0  0
  5 14  1  0  0  0
  5 15  1  0  0  0
  5 16  1  0  0  0
  6  7  1  0  0  0
  6 17  1  0  0  0
  6 18  1  0  0  0
  7 19  1  0  0  0
  7 20  1  0  0  0
  7 21  1  0  0  0
M  END
>  <i_m_Spin_multiplicity> (1)
1

>  <s_j_Task> (1)
Single Point

>  <s_j_QM_Method> (1)
DFT(b3lyp-d3)

>  <s_j_QM_Basis> (1)
cc-pvtz(-f)

>  <i_j_Number_of_canonical_orbitals> (1)
285

>  <i_j_Geometry_convergence_category> (1)
0

>  <r_j_Gas_Phase_Energy> (1)
-275.279162486548

>  <r_j_Final_Energy> (1)
-275.279162486548

>  <r_j_HOMO> (1)
-0.239068847055605

>  <r_j_LUMO> (1)
0.0122288266809543

>  <r_j_Polarizability> (1)
87.9351332035597

>  <r_j_QM_Dipole_(debye)> (1)
0.223293821478584

>  <r_j_QM_Dipole_X_(debye)> (1)
-0.0280655251740439

>  <r_j_QM_Dipole_Y_(debye)> (1)
-0.206216745104398

>  <r_j_QM_Dipole_Z_(debye)> (1)
0.0809142202938564

>  <r_j_Lowest_Frequency_(cm-1)> (1)
87.6998116837499

>  <r_j_Highest_Frequency_(cm-1)> (1)
3079.32781242998

>  <r_j_2nd_Lowest_Frequency_(cm-1)> (1)
94.048286573725

>  <i_j_Num_Negative_Frequencies> (1)
0

>  <r_j_Zero_Point_Energy_(kcal/mol)> (1)
121.107965532758

>  <r_j_Entropy_(cal/mol/K)_298.15K_1.00E+00atm> (1)
89.6809637416268

>  <r_j_Enthalpy_(kcal/mol)_298.15K_1.00E+00atm> (1)
6.11376625368754

>  <r_j_Free_Energy_(kcal/mol)_298.15K_1.00E+00atm> (1)
-20.6246130858785

>  <r_j_Internal_Energy_(kcal/mol)_298.15K_1.00E+00atm> (1)
5.52128066486027

>  <r_j_Heat_Capacity_(cal/mol/K)_298.15K_1.00E+00atm> (1)
32.5987534370689

>  <r_j_ln(Q)_298.15K_1.00E+00atm> (1)
34.8103202420526

>  <r_j_Total_Internal_Energy_(au)_298.15K_1.00E+00atm> (1)
-275.077365936454

>  <r_j_Total_Enthalpy_(au)_298.15K_1.00E+00atm> (1)
-275.076421750562

>  <r_j_Total_Free_Energy_(au)_298.15K_1.00E+00atm> (1)
-275.119032070593

>  <r_lp_tautomer_probability> (1)
1

>  <r_epik_Ionization_Penalty> (1)
  0.0000

>  <r_epik_Ionization_Penalty_Charging> (1)
  0.0000

>  <r_epik_Ionization_Penalty_Neutral> (1)
  0.0000

>  <r_epik_State_Penalty> (1)
  0.0000

>  <r_epik_Charging_Adjusted_Penalty> (1)
0

>  <i_epik_Tot_Q> (1)
0

>  <i_epik_Tot_abs_Q> (1)
0

>  <s_lp_Force_Field> (1)
S-OPLS

>  <r_lp_Energy> (1)
-1.6111

>  <b_lp_Chiralities_Consistent> (1)
1

$$$$
