138178_Cis-1-methyl-3-propylcyclohexane
                    3D
 Schrodinger Suite 2021-3.
 30 30  0  0  1  0            999 V2000
   -0.5509    1.5800   -0.1493 C   0  0  0  0  0  0
   -0.0809    0.1275   -0.0218 C   0  0  0  0  0  0
    1.4469    0.0062    0.0530 C   0  0  0  0  0  0
    1.9890   -1.4331    0.0769 C   0  0  0  0  0  0
    3.5241   -1.4464   -0.0474 C   0  0  0  0  0  0
    4.0949   -2.8709   -0.0245 C   0  0  0  0  0  0
    3.6482   -3.6291    1.2328 C   0  0  0  0  0  0
    2.1166   -3.6461    1.3741 C   0  0  0  0  0  0
    1.5582   -2.2121    1.3338 C   0  0  0  0  0  0
    1.6743   -4.3820    2.6429 C   0  0  0  0  0  0
   -1.6427    1.6471   -0.1995 H   0  0  0  0  0  0
   -0.1452    2.0485   -1.0535 H   0  0  0  0  0  0
   -0.2191    2.1776    0.7077 H   0  0  0  0  0  0
   -0.5371   -0.3213    0.8688 H   0  0  0  0  0  0
   -0.4469   -0.4546   -0.8788 H   0  0  0  0  0  0
    1.8814    0.5294   -0.8109 H   0  0  0  0  0  0
    1.8109    0.5413    0.9429 H   0  0  0  0  0  0
    1.5802   -1.9616   -0.8001 H   0  0  0  0  0  0
    3.8280   -0.9297   -0.9665 H   0  0  0  0  0  0
    3.9506   -0.8719    0.7886 H   0  0  0  0  0  0
    3.7476   -3.4131   -0.9155 H   0  0  0  0  0  0
    5.1895   -2.8426   -0.0841 H   0  0  0  0  0  0
    4.0351   -4.6559    1.2195 H   0  0  0  0  0  0
    4.0792   -3.1443    2.1218 H   0  0  0  0  0  0
    1.7089   -4.1852    0.5043 H   0  0  0  0  0  0
    1.9099   -1.6679    2.2248 H   0  0  0  0  0  0
    0.4648   -2.2488    1.4056 H   0  0  0  0  0  0
    2.0591   -3.8780    3.5381 H   0  0  0  0  0  0
    2.0455   -5.4127    2.6562 H   0  0  0  0  0  0
    0.5822   -4.4161    2.7246 H   0  0  0  0  0  0
  1  2  1  0  0  0
  1 11  1  0  0  0
  1 12  1  0  0  0
  1 13  1  0  0  0
  2  3  1  0  0  0
  2 14  1  0  0  0
  2 15  1  0  0  0
  3  4  1  0  0  0
  3 16  1  0  0  0
  3 17  1  0  0  0
  4  9  1  0  0  0
  4  5  1  0  0  0
  4 18  1  0  0  0
  5  6  1  0  0  0
  5 19  1  0  0  0
  5 20  1  0  0  0
  6  7  1  0  0  0
  6 21  1  0  0  0
  6 22  1  0  0  0
  7  8  1  0  0  0
  7 23  1  0  0  0
  7 24  1  0  0  0
  8  9  1  0  0  0
  8 10  1  0  0  0
  8 25  1  0  0  0
  9 26  1  0  0  0
  9 27  1  0  0  0
 10 28  1  0  0  0
 10 29  1  0  0  0
 10 30  1  0  0  0
M  END
>  <i_m_Spin_multiplicity> (1)
1

>  <s_j_Task> (1)
Single Point

>  <s_j_QM_Method> (1)
DFT(b3lyp-d3)

>  <s_j_QM_Basis> (1)
cc-pvtz(-f)

>  <i_j_Number_of_canonical_orbitals> (1)
406

>  <i_j_Geometry_convergence_category> (1)
0

>  <r_j_Gas_Phase_Energy> (1)
-393.293885454506

>  <r_j_Final_Energy> (1)
-393.293885454506

>  <r_j_HOMO> (1)
-0.301938443558617

>  <r_j_LUMO> (1)
0.00908771282500056

>  <r_j_Polarizability> (1)
118.650106299071

>  <r_j_QM_Dipole_(debye)> (1)
0.166592888826498

>  <r_j_QM_Dipole_X_(debye)> (1)
-0.0173739448800518

>  <r_j_QM_Dipole_Y_(debye)> (1)
-0.0972415498177602

>  <r_j_QM_Dipole_Z_(debye)> (1)
-0.134147000100274

>  <r_j_Lowest_Frequency_(cm-1)> (1)
102.118500989563

>  <r_j_Highest_Frequency_(cm-1)> (1)
3045.9557183158

>  <r_j_2nd_Lowest_Frequency_(cm-1)> (1)
129.824197856318

>  <i_j_Num_Negative_Frequencies> (1)
0

>  <r_j_Zero_Point_Energy_(kcal/mol)> (1)
177.155662095995

>  <r_j_Entropy_(cal/mol/K)_298.15K_1.00E+00atm> (1)
98.895087458002

>  <r_j_Enthalpy_(kcal/mol)_298.15K_1.00E+00atm> (1)
7.30579115593352

>  <r_j_Free_Energy_(kcal/mol)_298.15K_1.00E+00atm> (1)
-22.1797791696698

>  <r_j_Internal_Energy_(kcal/mol)_298.15K_1.00E+00atm> (1)
6.71330556710625

>  <r_j_Heat_Capacity_(cal/mol/K)_298.15K_1.00E+00atm> (1)
42.9480942159774

>  <r_j_ln(Q)_298.15K_1.00E+00atm> (1)
37.4351369685986

>  <r_j_Total_Internal_Energy_(au)_298.15K_1.00E+00atm> (1)
-393.000871601403

>  <r_j_Total_Enthalpy_(au)_298.15K_1.00E+00atm> (1)
-392.999927415511

>  <r_j_Total_Free_Energy_(au)_298.15K_1.00E+00atm> (1)
-393.046915663076

>  <r_lp_tautomer_probability> (1)
1

>  <r_epik_Ionization_Penalty> (1)
  0.0000

>  <r_epik_Ionization_Penalty_Charging> (1)
  0.0000

>  <r_epik_Ionization_Penalty_Neutral> (1)
  0.0000

>  <r_epik_State_Penalty> (1)
  0.0000

>  <r_epik_Charging_Adjusted_Penalty> (1)
0

>  <i_epik_Tot_Q> (1)
0

>  <i_epik_Tot_abs_Q> (1)
0

>  <s_lp_Force_Field> (1)
S-OPLS

>  <r_lp_Energy> (1)
9.981376

>  <b_lp_Chiralities_Consistent> (1)
1

$$$$
