138117_3,3-dimethyloctane
                    3D
 Schrodinger Suite 2021-3.
 32 31  0  0  1  0            999 V2000
   -4.2471    2.8806    0.0172 C   0  0  0  0  0  0
   -2.7169    2.9020    0.0797 C   0  0  0  0  0  0
   -2.0915    1.5060   -0.0251 C   0  0  0  0  0  0
   -0.5588    1.5204    0.0372 C   0  0  0  0  0  0
    0.0467    0.1124   -0.0509 C   0  0  0  0  0  0
    1.5946    0.0124   -0.0483 C   0  0  0  0  0  0
    2.1878    0.6998   -1.2942 C   0  0  0  0  0  0
    2.1739    0.6814    1.2143 C   0  0  0  0  0  0
    2.0164   -1.4829   -0.0140 C   0  0  0  0  0  0
    1.5712   -2.3589   -1.1916 C   0  0  0  0  0  0
   -4.6682    3.8884    0.0953 H   0  0  0  0  0  0
   -4.6662    2.2797    0.8326 H   0  0  0  0  0  0
   -4.5970    2.4449   -0.9259 H   0  0  0  0  0  0
   -2.3242    3.5353   -0.7277 H   0  0  0  0  0  0
   -2.3936    3.3727    1.0182 H   0  0  0  0  0  0
   -2.4836    0.8716    0.7831 H   0  0  0  0  0  0
   -2.4150    1.0328   -0.9636 H   0  0  0  0  0  0
   -0.1765    2.1474   -0.7788 H   0  0  0  0  0  0
   -0.2485    2.0082    0.9698 H   0  0  0  0  0  0
   -0.3391   -0.4860    0.7875 H   0  0  0  0  0  0
   -0.3350   -0.3642   -0.9630 H   0  0  0  0  0  0
    3.2708    0.5387   -1.3472 H   0  0  0  0  0  0
    2.0183    1.7807   -1.2722 H   0  0  0  0  0  0
    1.7457    0.3159   -2.2192 H   0  0  0  0  0  0
    3.2603    0.5444    1.2614 H   0  0  0  0  0  0
    1.7426    0.2474    2.1241 H   0  0  0  0  0  0
    1.9792    1.7579    1.2308 H   0  0  0  0  0  0
    3.1120   -1.5223    0.0566 H   0  0  0  0  0  0
    1.6387   -1.9240    0.9188 H   0  0  0  0  0  0
    1.9474   -3.3800   -1.0685 H   0  0  0  0  0  0
    1.9536   -1.9835   -2.1461 H   0  0  0  0  0  0
    0.4815   -2.4212   -1.2697 H   0  0  0  0  0  0
  1  2  1  0  0  0
  1 11  1  0  0  0
  1 12  1  0  0  0
  1 13  1  0  0  0
  2  3  1  0  0  0
  2 14  1  0  0  0
  2 15  1  0  0  0
  3  4  1  0  0  0
  3 16  1  0  0  0
  3 17  1  0  0  0
  4  5  1  0  0  0
  4 18  1  0  0  0
  4 19  1  0  0  0
  5  6  1  0  0  0
  5 20  1  0  0  0
  5 21  1  0  0  0
  6  7  1  0  0  0
  6  8  1  0  0  0
  6  9  1  0  0  0
  7 22  1  0  0  0
  7 23  1  0  0  0
  7 24  1  0  0  0
  8 25  1  0  0  0
  8 26  1  0  0  0
  8 27  1  0  0  0
  9 10  1  0  0  0
  9 28  1  0  0  0
  9 29  1  0  0  0
 10 30  1  0  0  0
 10 31  1  0  0  0
 10 32  1  0  0  0
M  END
>  <i_m_Spin_multiplicity> (1)
1

>  <s_j_Task> (1)
Single Point

>  <s_j_QM_Method> (1)
DFT(b3lyp-d3)

>  <s_j_QM_Basis> (1)
cc-pvtz(-f)

>  <i_j_Number_of_canonical_orbitals> (1)
425

>  <i_j_Geometry_convergence_category> (1)
3

>  <r_j_Gas_Phase_Energy> (1)
-394.499172861076

>  <r_j_Final_Energy> (1)
-394.499172861076

>  <r_j_HOMO> (1)
-0.292738749876867

>  <r_j_LUMO> (1)
0.027833878002187

>  <r_j_Polarizability> (1)
123.23805189013

>  <r_j_QM_Dipole_(debye)> (1)
0.0328458762911148

>  <r_j_QM_Dipole_X_(debye)> (1)
0.0255063163581941

>  <r_j_QM_Dipole_Y_(debye)> (1)
0.0182307388532273

>  <r_j_QM_Dipole_Z_(debye)> (1)
0.00979385399280426

>  <r_j_Lowest_Frequency_(cm-1)> (1)
79.9893092096235

>  <r_j_Highest_Frequency_(cm-1)> (1)
3058.35858138404

>  <r_j_2nd_Lowest_Frequency_(cm-1)> (1)
94.170119786303

>  <i_j_Num_Negative_Frequencies> (1)
0

>  <r_j_Zero_Point_Energy_(kcal/mol)> (1)
189.398370366387

>  <r_j_Entropy_(cal/mol/K)_298.15K_1.00E+00atm> (1)
107.269373068455

>  <r_j_Enthalpy_(kcal/mol)_298.15K_1.00E+00atm> (1)
8.51584855015236

>  <r_j_Free_Energy_(kcal/mol)_298.15K_1.00E+00atm> (1)
-23.4665150302074

>  <r_j_Internal_Energy_(kcal/mol)_298.15K_1.00E+00atm> (1)
7.92336296132508

>  <r_j_Heat_Capacity_(cal/mol/K)_298.15K_1.00E+00atm> (1)
49.0188616906302

>  <r_j_ln(Q)_298.15K_1.00E+00atm> (1)
39.6068958852745

>  <r_j_Total_Internal_Energy_(au)_298.15K_1.00E+00atm> (1)
-394.184720661132

>  <r_j_Total_Enthalpy_(au)_298.15K_1.00E+00atm> (1)
-394.183776475239

>  <r_j_Total_Free_Energy_(au)_298.15K_1.00E+00atm> (1)
-394.23474361615

>  <r_lp_tautomer_probability> (1)
1

>  <r_epik_Ionization_Penalty> (1)
  0.0000

>  <r_epik_Ionization_Penalty_Charging> (1)
  0.0000

>  <r_epik_Ionization_Penalty_Neutral> (1)
  0.0000

>  <r_epik_State_Penalty> (1)
  0.0000

>  <r_epik_Charging_Adjusted_Penalty> (1)
0

>  <i_epik_Tot_Q> (1)
0

>  <i_epik_Tot_abs_Q> (1)
0

>  <s_lp_Force_Field> (1)
S-OPLS

>  <r_lp_Energy> (1)
8.17197

>  <b_lp_Chiralities_Consistent> (1)
1

$$$$
