13849_Pentadecanoic acid
                    3D
 Schrodinger Suite 2021-3.
 46 45  0  0  1  0            999 V2000
   -6.6298    4.2349   -0.0138 C   0  0  0  0  0  0
   -5.0990    4.2892   -0.0085 C   0  0  0  0  0  0
   -4.4465    2.9016   -0.0216 C   0  0  0  0  0  0
   -2.9145    2.9492   -0.0102 C   0  0  0  0  0  0
   -2.2556    1.5651   -0.0173 C   0  0  0  0  0  0
   -0.7239    1.6235    0.0102 C   0  0  0  0  0  0
   -0.0620    0.2394    0.0233 C   0  0  0  0  0  0
    1.4743    0.2720   -0.0048 C   0  0  0  0  0  0
    2.1221    0.9149    1.2292 C   0  0  0  0  0  0
    3.6534    0.8430    1.2162 C   0  0  0  0  0  0
    4.3022    1.4998    2.4415 C   0  0  0  0  0  0
    5.8363    1.3947    2.4699 C   0  0  0  0  0  0
    6.5489    2.1306    1.3277 C   0  0  0  0  0  0
    8.0751    2.0642    1.3863 C   0  0  0  0  0  0
    8.7845    2.6010    0.0802 C   0  0  0  0  0  0
    9.9584    3.0096    0.2482 O   0  0  0  0  0  0
    8.1012    2.5241   -0.9749 O   0  5  0  0  0  0
   -7.0702    5.2378   -0.0042 H   0  0  0  0  0  0
   -7.0075    3.6961    0.8632 H   0  0  0  0  0  0
   -7.0024    3.7151   -0.9042 H   0  0  0  0  0  0
   -4.7481    4.8613   -0.8782 H   0  0  0  0  0  0
   -4.7538    4.8417    0.8761 H   0  0  0  0  0  0
   -4.7996    2.3271    0.8473 H   0  0  0  0  0  0
   -4.7885    2.3481   -0.9083 H   0  0  0  0  0  0
   -2.5623    3.5232   -0.8792 H   0  0  0  0  0  0
   -2.5763    3.5061    0.8753 H   0  0  0  0  0  0
   -2.6128    0.9892    0.8491 H   0  0  0  0  0  0
   -2.5859    1.0086   -0.9066 H   0  0  0  0  0  0
   -0.3642    2.1877   -0.8624 H   0  0  0  0  0  0
   -0.4060    2.1953    0.8912 H   0  0  0  0  0  0
   -0.3965   -0.3098    0.9160 H   0  0  0  0  0  0
   -0.4270   -0.3345   -0.8404 H   0  0  0  0  0  0
    1.8485   -0.7561   -0.1041 H   0  0  0  0  0  0
    1.8106    0.8028   -0.9067 H   0  0  0  0  0  0
    1.8180    1.9675    1.3050 H   0  0  0  0  0  0
    1.7373    0.4227    2.1358 H   0  0  0  0  0  0
    3.9684   -0.2097    1.1617 H   0  0  0  0  0  0
    4.0317    1.3178    0.3034 H   0  0  0  0  0  0
    4.0136    2.5613    2.4707 H   0  0  0  0  0  0
    3.8799    1.0444    3.3511 H   0  0  0  0  0  0
    6.1967    1.7829    3.4340 H   0  0  0  0  0  0
    6.1221    0.3314    2.4517 H   0  0  0  0  0  0
    6.2604    1.7343    0.3482 H   0  0  0  0  0  0
    6.2283    3.1838    1.3255 H   0  0  0  0  0  0
    8.4700    2.6091    2.2540 H   0  0  0  0  0  0
    8.3865    1.0146    1.5175 H   0  0  0  0  0  0
  1  2  1  0  0  0
  1 18  1  0  0  0
  1 19  1  0  0  0
  1 20  1  0  0  0
  2  3  1  0  0  0
  2 21  1  0  0  0
  2 22  1  0  0  0
  3  4  1  0  0  0
  3 23  1  0  0  0
  3 24  1  0  0  0
  4  5  1  0  0  0
  4 25  1  0  0  0
  4 26  1  0  0  0
  5  6  1  0  0  0
  5 27  1  0  0  0
  5 28  1  0  0  0
  6  7  1  0  0  0
  6 29  1  0  0  0
  6 30  1  0  0  0
  7  8  1  0  0  0
  7 31  1  0  0  0
  7 32  1  0  0  0
  8  9  1  0  0  0
  8 33  1  0  0  0
  8 34  1  0  0  0
  9 10  1  0  0  0
  9 35  1  0  0  0
  9 36  1  0  0  0
 10 11  1  0  0  0
 10 37  1  0  0  0
 10 38  1  0  0  0
 11 12  1  0  0  0
 11 39  1  0  0  0
 11 40  1  0  0  0
 12 13  1  0  0  0
 12 41  1  0  0  0
 12 42  1  0  0  0
 13 14  1  0  0  0
 13 43  1  0  0  0
 13 44  1  0  0  0
 14 15  1  0  0  0
 14 45  1  0  0  0
 14 46  1  0  0  0
 15 16  2  0  0  0
 15 17  1  0  0  0
M  END
>  <s_lp_Force_Field> (1)
S-OPLS

>  <r_lp_Energy> (1)
10.739796

>  <b_lp_Chiralities_Consistent> (1)
1

>  <r_epik_Ionization_Penalty> (1)
  0.0049

>  <r_epik_Ionization_Penalty_Charging> (1)
  0.0049

>  <r_epik_Ionization_Penalty_Neutral> (1)
  0.0000

>  <r_epik_State_Penalty> (1)
  0.0035

>  <r_epik_Charging_Adjusted_Penalty> (1)
0.00839777765143097

>  <i_epik_Tot_Q> (1)
-1

>  <i_epik_Tot_abs_Q> (1)
1

>  <i_m_Spin_multiplicity> (1)
1

>  <s_j_Task> (1)
Single Point

>  <s_j_QM_Method> (1)
DFT(b3lyp-d3)

>  <s_j_QM_Basis> (1)
6-31g**

>  <i_j_Number_of_canonical_orbitals> (1)
400

>  <i_j_Geometry_convergence_category> (1)
0

>  <r_j_Gas_Phase_Energy> (1)
-739.659985662726

>  <r_j_Final_Energy> (1)
-739.659985662726

>  <r_j_HOMO> (1)
-0.00536272410479299

>  <r_j_LUMO> (1)
0.13606147683366

>  <r_j_Polarizability> (1)
172.355918313507

>  <r_j_QM_Dipole_(debye)> (1)
30.5119445090104

>  <r_j_QM_Dipole_X_(debye)> (1)
-30.2138304866605

>  <r_j_QM_Dipole_Y_(debye)> (1)
-2.75532295596206

>  <r_j_QM_Dipole_Z_(debye)> (1)
3.24212899999705

>  <r_j_Lowest_Frequency_(cm-1)> (1)
12.2092520475137

>  <r_j_Highest_Frequency_(cm-1)> (1)
3103.0367368994

>  <r_j_2nd_Lowest_Frequency_(cm-1)> (1)
28.1971630264663

>  <i_j_Num_Negative_Frequencies> (1)
0

>  <r_j_Zero_Point_Energy_(kcal/mol)> (1)
264.33528021999

>  <r_j_Entropy_(cal/mol/K)_298.15K_1.00E+00atm> (1)
148.072364376562

>  <r_j_Enthalpy_(kcal/mol)_298.15K_1.00E+00atm> (1)
13.3898541039328

>  <r_j_Free_Energy_(kcal/mol)_298.15K_1.00E+00atm> (1)
-30.7579213349392

>  <r_j_Internal_Energy_(kcal/mol)_298.15K_1.00E+00atm> (1)
12.7973685151056

>  <r_j_Heat_Capacity_(cal/mol/K)_298.15K_1.00E+00atm> (1)
75.0734530440612

>  <r_j_ln(Q)_298.15K_1.00E+00atm> (1)
51.9133661897488

>  <r_j_Total_Internal_Energy_(au)_298.15K_1.00E+00atm> (1)
-739.218346672425

>  <r_j_Total_Enthalpy_(au)_298.15K_1.00E+00atm> (1)
-739.217402486533

>  <r_j_Total_Free_Energy_(au)_298.15K_1.00E+00atm> (1)
-739.287756445396

$$$$
