13908485_Methyl dotriacontanoate
                    3D
 Schrodinger Suite 2021-3.
101100  0  0  1  0            999 V2000
  -15.9863    0.7649   -5.1650 C   0  0  0  0  0  0
  -15.2607    0.9654   -3.8312 C   0  0  0  0  0  0
  -13.7467    0.7414   -3.9290 C   0  0  0  0  0  0
  -13.0172    0.9454   -2.5966 C   0  0  0  0  0  0
  -11.5021    0.7269   -2.6827 C   0  0  0  0  0  0
  -10.7857    0.9455   -1.3452 C   0  0  0  0  0  0
   -9.2685    0.7378   -1.4156 C   0  0  0  0  0  0
   -8.5655    0.9793   -0.0748 C   0  0  0  0  0  0
   -7.0459    0.7849   -0.1313 C   0  0  0  0  0  0
   -6.3582    1.0652    1.2116 C   0  0  0  0  0  0
   -4.8429    0.8125    1.2183 C   0  0  0  0  0  0
   -4.0530    1.7150    0.2575 C   0  0  0  0  0  0
   -2.5297    1.6489    0.4432 C   0  0  0  0  0  0
   -1.9107    0.2717    0.1678 C   0  0  0  0  0  0
   -0.3821    0.2753    0.2825 C   0  0  0  0  0  0
    0.2616   -1.0973    0.0528 C   0  0  0  0  0  0
    1.7896   -1.0664    0.1715 C   0  0  0  0  0  0
    2.4596   -2.4322   -0.0206 C   0  0  0  0  0  0
    3.9861   -2.3662    0.1045 C   0  0  0  0  0  0
    4.6888   -3.7203   -0.0498 C   0  0  0  0  0  0
    6.2123   -3.6124    0.0851 C   0  0  0  0  0  0
    6.9457   -4.9559   -0.0303 C   0  0  0  0  0  0
    8.4666   -4.8473    0.1727 C   0  0  0  0  0  0
    9.2034   -4.1391   -0.9749 C   0  0  0  0  0  0
   10.7012   -3.9058   -0.7174 C   0  0  0  0  0  0
   10.9856   -2.8757    0.3851 C   0  0  0  0  0  0
   12.4744   -2.5338    0.5310 C   0  0  0  0  0  0
   12.7871   -1.5643    1.6823 C   0  0  0  0  0  0
   12.1581   -0.1733    1.5246 C   0  0  0  0  0  0
   12.5362    0.7866    2.6571 C   0  0  0  0  0  0
   11.8759    2.1574    2.5047 C   0  0  0  0  0  0
   12.2166    3.1065    3.6343 C   0  0  0  0  0  0
   12.9346    2.8561    4.5783 O   0  0  0  0  0  0
   11.6040    4.3017    3.4609 O   0  0  0  0  0  0
   11.8610    5.2743    4.4883 C   0  0  0  0  0  0
  -17.0643    0.9307   -5.0662 H   0  0  0  0  0  0
  -15.8387   -0.2526   -5.5451 H   0  0  0  0  0  0
  -15.6105    1.4583   -5.9262 H   0  0  0  0  0  0
  -15.4515    1.9808   -3.4576 H   0  0  0  0  0  0
  -15.6785    0.2826   -3.0787 H   0  0  0  0  0  0
  -13.5530   -0.2755   -4.2998 H   0  0  0  0  0  0
  -13.3268    1.4228   -4.6829 H   0  0  0  0  0  0
  -13.2154    1.9620   -2.2275 H   0  0  0  0  0  0
  -13.4393    0.2641   -1.8439 H   0  0  0  0  0  0
  -11.3000   -0.2918   -3.0434 H   0  0  0  0  0  0
  -11.0786    1.4048   -3.4377 H   0  0  0  0  0  0
  -10.9946    1.9635   -0.9859 H   0  0  0  0  0  0
  -11.2100    0.2671   -0.5912 H   0  0  0  0  0  0
   -9.0548   -0.2836   -1.7619 H   0  0  0  0  0  0
   -8.8438    1.4098   -2.1751 H   0  0  0  0  0  0
   -8.7860    2.0003    0.2690 H   0  0  0  0  0  0
   -8.9904    0.3076    0.6849 H   0  0  0  0  0  0
   -6.8190   -0.2433   -0.4487 H   0  0  0  0  0  0
   -6.6304    1.4409   -0.9074 H   0  0  0  0  0  0
   -6.5513    2.1080    1.5026 H   0  0  0  0  0  0
   -6.8271    0.4429    1.9862 H   0  0  0  0  0  0
   -4.4631    0.9646    2.2383 H   0  0  0  0  0  0
   -4.6543   -0.2421    0.9780 H   0  0  0  0  0  0
   -4.2981    1.4569   -0.7812 H   0  0  0  0  0  0
   -4.3821    2.7541    0.3986 H   0  0  0  0  0  0
   -2.0581    2.3873   -0.2196 H   0  0  0  0  0  0
   -2.2770    1.9570    1.4682 H   0  0  0  0  0  0
   -2.3209   -0.4687    0.8669 H   0  0  0  0  0  0
   -2.2027   -0.0646   -0.8378 H   0  0  0  0  0  0
    0.0340    0.9961   -0.4362 H   0  0  0  0  0  0
   -0.0962    0.6445    1.2781 H   0  0  0  0  0  0
   -0.1465   -1.8166    0.7772 H   0  0  0  0  0  0
   -0.0214   -1.4738   -0.9406 H   0  0  0  0  0  0
    2.1950   -0.3575   -0.5647 H   0  0  0  0  0  0
    2.0662   -0.6662    1.1577 H   0  0  0  0  0  0
    2.0622   -3.1408    0.7201 H   0  0  0  0  0  0
    2.1893   -2.8391   -1.0054 H   0  0  0  0  0  0
    4.3798   -1.6667   -0.6470 H   0  0  0  0  0  0
    4.2485   -1.9355    1.0818 H   0  0  0  0  0  0
    4.3025   -4.4206    0.7045 H   0  0  0  0  0  0
    4.4365   -4.1567   -1.0268 H   0  0  0  0  0  0
    6.5854   -2.9151   -0.6763 H   0  0  0  0  0  0
    6.4561   -3.1568    1.0560 H   0  0  0  0  0  0
    6.5328   -5.6469    0.7169 H   0  0  0  0  0  0
    6.7353   -5.4073   -1.0106 H   0  0  0  0  0  0
    8.6541   -4.3232    1.1190 H   0  0  0  0  0  0
    8.8935   -5.8521    0.2935 H   0  0  0  0  0  0
    9.0784   -4.7348   -1.8891 H   0  0  0  0  0  0
    8.7322   -3.1687   -1.1799 H   0  0  0  0  0  0
   11.1880   -4.8589   -0.4656 H   0  0  0  0  0  0
   11.1719   -3.5617   -1.6485 H   0  0  0  0  0  0
   10.4148   -1.9640    0.1645 H   0  0  0  0  0  0
   10.6106   -3.2424    1.3498 H   0  0  0  0  0  0
   13.0398   -3.4629    0.6846 H   0  0  0  0  0  0
   12.8426   -2.1075   -0.4134 H   0  0  0  0  0  0
   12.4493   -2.0061    2.6306 H   0  0  0  0  0  0
   13.8760   -1.4524    1.7714 H   0  0  0  0  0  0
   12.4646    0.2555    0.5592 H   0  0  0  0  0  0
   11.0646   -0.2615    1.4830 H   0  0  0  0  0  0
   12.2489    0.3571    3.6242 H   0  0  0  0  0  0
   13.6245    0.9128    2.7003 H   0  0  0  0  0  0
   12.1662    2.6390    1.5622 H   0  0  0  0  0  0
   10.7826    2.0697    2.4619 H   0  0  0  0  0  0
   11.2991    6.1635    4.2019 H   0  0  0  0  0  0
   12.9294    5.4985    4.5499 H   0  0  0  0  0  0
   11.5262    4.9056    5.4617 H   0  0  0  0  0  0
  1  2  1  0  0  0
  1 36  1  0  0  0
  1 37  1  0  0  0
  1 38  1  0  0  0
  2  3  1  0  0  0
  2 39  1  0  0  0
  2 40  1  0  0  0
  3  4  1  0  0  0
  3 41  1  0  0  0
  3 42  1  0  0  0
  4  5  1  0  0  0
  4 43  1  0  0  0
  4 44  1  0  0  0
  5  6  1  0  0  0
  5 45  1  0  0  0
  5 46  1  0  0  0
  6  7  1  0  0  0
  6 47  1  0  0  0
  6 48  1  0  0  0
  7  8  1  0  0  0
  7 49  1  0  0  0
  7 50  1  0  0  0
  8  9  1  0  0  0
  8 51  1  0  0  0
  8 52  1  0  0  0
  9 10  1  0  0  0
  9 53  1  0  0  0
  9 54  1  0  0  0
 10 11  1  0  0  0
 10 55  1  0  0  0
 10 56  1  0  0  0
 11 12  1  0  0  0
 11 57  1  0  0  0
 11 58  1  0  0  0
 12 13  1  0  0  0
 12 59  1  0  0  0
 12 60  1  0  0  0
 13 14  1  0  0  0
 13 61  1  0  0  0
 13 62  1  0  0  0
 14 15  1  0  0  0
 14 63  1  0  0  0
 14 64  1  0  0  0
 15 16  1  0  0  0
 15 65  1  0  0  0
 15 66  1  0  0  0
 16 17  1  0  0  0
 16 67  1  0  0  0
 16 68  1  0  0  0
 17 18  1  0  0  0
 17 69  1  0  0  0
 17 70  1  0  0  0
 18 19  1  0  0  0
 18 71  1  0  0  0
 18 72  1  0  0  0
 19 20  1  0  0  0
 19 73  1  0  0  0
 19 74  1  0  0  0
 20 21  1  0  0  0
 20 75  1  0  0  0
 20 76  1  0  0  0
 21 22  1  0  0  0
 21 77  1  0  0  0
 21 78  1  0  0  0
 22 23  1  0  0  0
 22 79  1  0  0  0
 22 80  1  0  0  0
 23 24  1  0  0  0
 23 81  1  0  0  0
 23 82  1  0  0  0
 24 25  1  0  0  0
 24 83  1  0  0  0
 24 84  1  0  0  0
 25 26  1  0  0  0
 25 85  1  0  0  0
 25 86  1  0  0  0
 26 27  1  0  0  0
 26 87  1  0  0  0
 26 88  1  0  0  0
 27 28  1  0  0  0
 27 89  1  0  0  0
 27 90  1  0  0  0
 28 29  1  0  0  0
 28 91  1  0  0  0
 28 92  1  0  0  0
 29 30  1  0  0  0
 29 93  1  0  0  0
 29 94  1  0  0  0
 30 31  1  0  0  0
 30 95  1  0  0  0
 30 96  1  0  0  0
 31 32  1  0  0  0
 31 97  1  0  0  0
 31 98  1  0  0  0
 32 33  2  0  0  0
 32 34  1  0  0  0
 34 35  1  0  0  0
 35 99  1  0  0  0
 35100  1  0  0  0
 35101  1  0  0  0
M  END
>  <i_m_Spin_multiplicity> (1)
1

>  <s_j_Task> (1)
Single Point

>  <s_j_QM_Method> (1)
DFT(b3lyp-d3)

>  <s_j_QM_Basis> (1)
cc-pvtz(-f)

>  <i_j_Number_of_canonical_orbitals> (1)
1388

>  <i_j_Geometry_convergence_category> (1)
4

>  <r_j_Gas_Phase_Energy> (1)
-1448.37276010694

>  <r_j_Final_Energy> (1)
-1448.37276010694

>  <r_j_HOMO> (1)
-0.279062303102443

>  <r_j_LUMO> (1)
0.000754574023000228

>  <r_j_Polarizability> (1)
415.741422624224

>  <r_j_QM_Dipole_(debye)> (1)
1.57289175155708

>  <r_j_QM_Dipole_X_(debye)> (1)
-1.00738086541262

>  <r_j_QM_Dipole_Y_(debye)> (1)
0.630629429638904

>  <r_j_QM_Dipole_Z_(debye)> (1)
-1.03028092120069

>  <r_j_Lowest_Frequency_(cm-1)> (1)
12.4926634763786

>  <r_j_Highest_Frequency_(cm-1)> (1)
3106.88151911113

>  <r_j_2nd_Lowest_Frequency_(cm-1)> (1)
16.4447174068239

>  <i_j_Num_Negative_Frequencies> (1)
0

>  <r_j_Zero_Point_Energy_(kcal/mol)> (1)
592.729497560532

>  <r_j_Entropy_(cal/mol/K)_298.15K_1.00E+00atm> (1)
239.443597796842

>  <r_j_Enthalpy_(kcal/mol)_298.15K_1.00E+00atm> (1)
26.9366135687166

>  <r_j_Free_Energy_(kcal/mol)_298.15K_1.00E+00atm> (1)
-44.4534951144118

>  <r_j_Internal_Energy_(kcal/mol)_298.15K_1.00E+00atm> (1)
26.3441279798893

>  <r_j_Heat_Capacity_(cal/mol/K)_298.15K_1.00E+00atm> (1)
161.267205503561

>  <r_j_ln(Q)_298.15K_1.00E+00atm> (1)
75.0288208737701

>  <r_j_Total_Internal_Energy_(au)_298.15K_1.00E+00atm> (1)
-1447.38620348088

>  <r_j_Total_Enthalpy_(au)_298.15K_1.00E+00atm> (1)
-1447.38525929499

>  <r_j_Total_Free_Energy_(au)_298.15K_1.00E+00atm> (1)
-1447.49902667556

>  <r_lp_tautomer_probability> (1)
1

>  <r_epik_Ionization_Penalty> (1)
  0.0000

>  <r_epik_Ionization_Penalty_Charging> (1)
  0.0000

>  <r_epik_Ionization_Penalty_Neutral> (1)
  0.0000

>  <r_epik_State_Penalty> (1)
  0.0000

>  <r_epik_Charging_Adjusted_Penalty> (1)
0

>  <i_epik_Tot_Q> (1)
0

>  <i_epik_Tot_abs_Q> (1)
0

>  <s_lp_Force_Field> (1)
S-OPLS

>  <r_lp_Energy> (1)
18.1257

>  <b_lp_Chiralities_Consistent> (1)
1

>  <s_epik_Chemistry_Notes> (1)
This compound has an ester and may undergo hydrolysis at high or low pH.

$$$$
