139395_2,6-dimethyldecane
                    3D
 Schrodinger Suite 2021-3.
 38 37  0  0  1  0            999 V2000
   -4.2884   -1.4364   -2.5424 C   0  0  0  0  0  0
   -2.7579   -1.4359   -2.4907 C   0  0  0  0  0  0
   -2.1959   -0.6030   -1.3319 C   0  0  0  0  0  0
   -0.6623   -0.5940   -1.2952 C   0  0  0  0  0  0
   -0.0369    0.0938   -0.0659 C   0  0  0  0  0  0
   -0.4491    1.5705    0.0345 C   0  0  0  0  0  0
    1.5010   -0.0215   -0.0672 C   0  0  0  0  0  0
    2.0552   -1.4498    0.0177 C   0  0  0  0  0  0
    3.5834   -1.4823    0.1474 C   0  0  0  0  0  0
    4.2117   -2.8877    0.0982 C   0  0  0  0  0  0
    3.7421   -3.7776    1.2584 C   0  0  0  0  0  0
    5.7437   -2.7905    0.0841 C   0  0  0  0  0  0
   -4.6635   -2.0408   -3.3749 H   0  0  0  0  0  0
   -4.6791   -0.4196   -2.6655 H   0  0  0  0  0  0
   -4.7136   -1.8423   -1.6171 H   0  0  0  0  0  0
   -2.3920   -2.4683   -2.4047 H   0  0  0  0  0  0
   -2.3574   -1.0511   -3.4387 H   0  0  0  0  0  0
   -2.5810    0.4215   -1.4128 H   0  0  0  0  0  0
   -2.5810   -0.9993   -0.3809 H   0  0  0  0  0  0
   -0.3160   -1.6339   -1.3390 H   0  0  0  0  0  0
   -0.2795   -0.1083   -2.2057 H   0  0  0  0  0  0
   -0.4092   -0.4244    0.8322 H   0  0  0  0  0  0
   -0.1395    2.1198   -0.8635 H   0  0  0  0  0  0
    0.0231    2.0524    0.8975 H   0  0  0  0  0  0
   -1.5311    1.6898    0.1415 H   0  0  0  0  0  0
    1.8948    0.4701   -0.9695 H   0  0  0  0  0  0
    1.8929    0.5543    0.7830 H   0  0  0  0  0  0
    1.5933   -1.9588    0.8737 H   0  0  0  0  0  0
    1.7656   -2.0228   -0.8724 H   0  0  0  0  0  0
    4.0169   -0.8771   -0.6615 H   0  0  0  0  0  0
    3.8820   -0.9905    1.0854 H   0  0  0  0  0  0
    3.8934   -3.3614   -0.8431 H   0  0  0  0  0  0
    4.0013   -3.3222    2.2226 H   0  0  0  0  0  0
    4.2211   -4.7618    1.2167 H   0  0  0  0  0  0
    2.6597   -3.9361    1.2442 H   0  0  0  0  0  0
    6.1113   -2.3218    1.0056 H   0  0  0  0  0  0
    6.0989   -2.1884   -0.7595 H   0  0  0  0  0  0
    6.2054   -3.7811    0.0090 H   0  0  0  0  0  0
  1  2  1  0  0  0
  1 13  1  0  0  0
  1 14  1  0  0  0
  1 15  1  0  0  0
  2  3  1  0  0  0
  2 16  1  0  0  0
  2 17  1  0  0  0
  3  4  1  0  0  0
  3 18  1  0  0  0
  3 19  1  0  0  0
  4  5  1  0  0  0
  4 20  1  0  0  0
  4 21  1  0  0  0
  5  6  1  0  0  0
  5  7  1  0  0  0
  5 22  1  0  0  0
  6 23  1  0  0  0
  6 24  1  0  0  0
  6 25  1  0  0  0
  7  8  1  0  0  0
  7 26  1  0  0  0
  7 27  1  0  0  0
  8  9  1  0  0  0
  8 28  1  0  0  0
  8 29  1  0  0  0
  9 10  1  0  0  0
  9 30  1  0  0  0
  9 31  1  0  0  0
 10 11  1  0  0  0
 10 12  1  0  0  0
 10 32  1  0  0  0
 11 33  1  0  0  0
 11 34  1  0  0  0
 11 35  1  0  0  0
 12 36  1  0  0  0
 12 37  1  0  0  0
 12 38  1  0  0  0
M  END
>  <i_m_Spin_multiplicity> (1)
1

>  <s_j_Task> (1)
Single Point

>  <s_j_QM_Method> (1)
DFT(b3lyp-d3)

>  <s_j_QM_Basis> (1)
cc-pvtz(-f)

>  <i_j_Number_of_canonical_orbitals> (1)
506

>  <i_j_Geometry_convergence_category> (1)
0

>  <r_j_Gas_Phase_Energy> (1)
-473.158993205063

>  <r_j_Final_Energy> (1)
-473.158993205063

>  <r_j_HOMO> (1)
-0.299349787142051

>  <r_j_LUMO> (1)
0.0160919793176479

>  <r_j_Polarizability> (1)
148.833393485269

>  <r_j_QM_Dipole_(debye)> (1)
0.123140253347991

>  <r_j_QM_Dipole_X_(debye)> (1)
-0.0356243489278021

>  <r_j_QM_Dipole_Y_(debye)> (1)
-0.101209946395714

>  <r_j_QM_Dipole_Z_(debye)> (1)
-0.0604232944207306

>  <r_j_Lowest_Frequency_(cm-1)> (1)
58.1541637694089

>  <r_j_Highest_Frequency_(cm-1)> (1)
3055.86526292139

>  <r_j_2nd_Lowest_Frequency_(cm-1)> (1)
73.3039517163129

>  <i_j_Num_Negative_Frequencies> (1)
0

>  <r_j_Zero_Point_Energy_(kcal/mol)> (1)
225.197398445687

>  <r_j_Entropy_(cal/mol/K)_298.15K_1.00E+00atm> (1)
119.802889395445

>  <r_j_Enthalpy_(kcal/mol)_298.15K_1.00E+00atm> (1)
10.0778159377159

>  <r_j_Free_Energy_(kcal/mol)_298.15K_1.00E+00atm> (1)
-25.641415535536

>  <r_j_Internal_Energy_(kcal/mol)_298.15K_1.00E+00atm> (1)
9.48533034888858

>  <r_j_Heat_Capacity_(cal/mol/K)_298.15K_1.00E+00atm> (1)
58.1709579194215

>  <r_j_ln(Q)_298.15K_1.00E+00atm> (1)
43.2777033215085

>  <r_j_Total_Internal_Energy_(au)_298.15K_1.00E+00atm> (1)
-472.785002468645

>  <r_j_Total_Enthalpy_(au)_298.15K_1.00E+00atm> (1)
-472.784058282752

>  <r_j_Total_Free_Energy_(au)_298.15K_1.00E+00atm> (1)
-472.840980501748

>  <r_lp_tautomer_probability> (1)
1

>  <r_epik_Ionization_Penalty> (1)
  0.0000

>  <r_epik_Ionization_Penalty_Charging> (1)
  0.0000

>  <r_epik_Ionization_Penalty_Neutral> (1)
  0.0000

>  <r_epik_State_Penalty> (1)
  0.0000

>  <r_epik_Charging_Adjusted_Penalty> (1)
0

>  <i_epik_Tot_Q> (1)
0

>  <i_epik_Tot_abs_Q> (1)
0

>  <s_lp_Force_Field> (1)
S-OPLS

>  <r_lp_Energy> (1)
6.50547

>  <b_lp_Chiralities_Consistent> (1)
1

$$$$
