139568_1-Hexen-3-yne
                    3D
 Schrodinger Suite 2021-3.
 14 13  0  0  1  0            999 V2000
   -0.5267    1.4062   -0.0082 C   0  0  0  0  0  0
    0.0639   -0.0162   -0.0109 C   0  0  0  0  0  0
    1.5266   -0.0249   -0.0036 C   0  0  0  0  0  0
    2.7390    0.0101    0.0059 C   0  0  0  0  0  0
    4.1635    0.0055    0.0037 C   0  0  0  0  0  0
    4.9324    1.0527    0.3393 C   0  0  0  0  0  0
   -1.6205    1.3667   -0.0127 H   0  0  0  0  0  0
   -0.1974    1.9639   -0.8894 H   0  0  0  0  0  0
   -0.2045    1.9574    0.8798 H   0  0  0  0  0  0
   -0.3050   -0.5706    0.8627 H   0  0  0  0  0  0
   -0.2970   -0.5655   -0.8908 H   0  0  0  0  0  0
    4.6386   -0.9283   -0.2974 H   0  0  0  0  0  0
    4.5013    2.0007    0.6446 H   0  0  0  0  0  0
    6.0148    0.9804    0.3141 H   0  0  0  0  0  0
  1  2  1  0  0  0
  1  7  1  0  0  0
  1  8  1  0  0  0
  1  9  1  0  0  0
  2  3  1  0  0  0
  2 10  1  0  0  0
  2 11  1  0  0  0
  3  4  3  0  0  0
  4  5  1  0  0  0
  5  6  2  0  0  0
  5 12  1  0  0  0
  6 13  1  0  0  0
  6 14  1  0  0  0
M  END
>  <i_m_Spin_multiplicity> (1)
1

>  <s_j_Task> (1)
Single Point

>  <s_j_QM_Method> (1)
DFT(b3lyp-d3)

>  <s_j_QM_Basis> (1)
cc-pvtz(-f)

>  <i_j_Number_of_canonical_orbitals> (1)
208

>  <i_j_Geometry_convergence_category> (1)
3

>  <r_j_Gas_Phase_Energy> (1)
-233.46180809114

>  <r_j_Final_Energy> (1)
-233.46180809114

>  <r_j_HOMO> (1)
-0.235261088954096

>  <r_j_LUMO> (1)
-0.0291778462846869

>  <r_j_Polarizability> (1)
75.0329965135441

>  <r_j_QM_Dipole_(debye)> (1)
0.665098489522218

>  <r_j_QM_Dipole_X_(debye)> (1)
-0.66211655317732

>  <r_j_QM_Dipole_Y_(debye)> (1)
0.0616531014072564

>  <r_j_QM_Dipole_Z_(debye)> (1)
-0.0125126280287836

>  <r_j_Lowest_Frequency_(cm-1)> (1)
113.822515183534

>  <r_j_Highest_Frequency_(cm-1)> (1)
3193.61193320318

>  <r_j_2nd_Lowest_Frequency_(cm-1)> (1)
127.89264983571

>  <i_j_Num_Negative_Frequencies> (1)
0

>  <r_j_Zero_Point_Energy_(kcal/mol)> (1)
74.1598057104324

>  <r_j_Entropy_(cal/mol/K)_298.15K_1.00E+00atm> (1)
80.9909585253091

>  <r_j_Enthalpy_(kcal/mol)_298.15K_1.00E+00atm> (1)
4.9430949023505

>  <r_j_Free_Energy_(kcal/mol)_298.15K_1.00E+00atm> (1)
-19.2043593819704

>  <r_j_Internal_Energy_(kcal/mol)_298.15K_1.00E+00atm> (1)
4.35060931352323

>  <r_j_Heat_Capacity_(cal/mol/K)_298.15K_1.00E+00atm> (1)
24.2900371379548

>  <r_j_ln(Q)_298.15K_1.00E+00atm> (1)
32.4132092731271

>  <r_j_Total_Internal_Energy_(au)_298.15K_1.00E+00atm> (1)
-233.336693780078

>  <r_j_Total_Enthalpy_(au)_298.15K_1.00E+00atm> (1)
-233.335749594186

>  <r_j_Total_Free_Energy_(au)_298.15K_1.00E+00atm> (1)
-233.374231012298

>  <r_lp_tautomer_probability> (1)
1

>  <r_epik_Ionization_Penalty> (1)
  0.0000

>  <r_epik_Ionization_Penalty_Charging> (1)
  0.0000

>  <r_epik_Ionization_Penalty_Neutral> (1)
  0.0000

>  <r_epik_State_Penalty> (1)
  0.0000

>  <r_epik_Charging_Adjusted_Penalty> (1)
0

>  <i_epik_Tot_Q> (1)
0

>  <i_epik_Tot_abs_Q> (1)
0

>  <s_lp_Force_Field> (1)
S-OPLS

>  <r_lp_Energy> (1)
-0.021133

>  <b_lp_Chiralities_Consistent> (1)
1

$$$$
