139803_3-ethyl-2-methylheptane
                    3D
 Schrodinger Suite 2021-3.
 32 31  0  0  1  0            999 V2000
   -2.8294    2.7727   -0.0126 C   0  0  0  0  0  0
   -2.1734    1.3889   -0.0120 C   0  0  0  0  0  0
   -0.6411    1.4503    0.0073 C   0  0  0  0  0  0
    0.0076    0.0600    0.0046 C   0  0  0  0  0  0
    1.5539    0.0425    0.0127 C   0  0  0  0  0  0
    2.1370    0.6574    1.3066 C   0  0  0  0  0  0
    1.5604    0.0899    2.6088 C   0  0  0  0  0  0
    2.1795    0.6939   -1.2542 C   0  0  0  0  0  0
    1.5403    0.1823   -2.5558 C   0  0  0  0  0  0
    3.7013    0.4764   -1.3210 C   0  0  0  0  0  0
   -3.9220    2.7018   -0.0278 H   0  0  0  0  0  0
   -2.5206    3.3543   -0.8891 H   0  0  0  0  0  0
   -2.5442    3.3443    0.8782 H   0  0  0  0  0  0
   -2.5231    0.8152    0.8573 H   0  0  0  0  0  0
   -2.5005    0.8261   -0.8971 H   0  0  0  0  0  0
   -0.2968    2.0279   -0.8610 H   0  0  0  0  0  0
   -0.3164    2.0141    0.8922 H   0  0  0  0  0  0
   -0.3562   -0.5005    0.8742 H   0  0  0  0  0  0
   -0.3547   -0.5001   -0.8652 H   0  0  0  0  0  0
    1.8488   -1.0198   -0.0014 H   0  0  0  0  0  0
    3.2201    0.4986    1.3167 H   0  0  0  0  0  0
    1.9943    1.7464    1.2888 H   0  0  0  0  0  0
    2.1170    0.4626    3.4749 H   0  0  0  0  0  0
    1.6186   -1.0049    2.6222 H   0  0  0  0  0  0
    0.5112    0.3670    2.7508 H   0  0  0  0  0  0
    2.0016    1.7779   -1.1967 H   0  0  0  0  0  0
    1.6043   -0.9112   -2.6180 H   0  0  0  0  0  0
    2.0593    0.5937   -3.4280 H   0  0  0  0  0  0
    0.4865    0.4605   -2.6422 H   0  0  0  0  0  0
    3.9393   -0.5948   -1.3239 H   0  0  0  0  0  0
    4.2296    0.9336   -0.4807 H   0  0  0  0  0  0
    4.1138    0.9087   -2.2388 H   0  0  0  0  0  0
  1  2  1  0  0  0
  1 11  1  0  0  0
  1 12  1  0  0  0
  1 13  1  0  0  0
  2  3  1  0  0  0
  2 14  1  0  0  0
  2 15  1  0  0  0
  3  4  1  0  0  0
  3 16  1  0  0  0
  3 17  1  0  0  0
  4  5  1  0  0  0
  4 18  1  0  0  0
  4 19  1  0  0  0
  5  6  1  0  0  0
  5  8  1  0  0  0
  5 20  1  0  0  0
  6  7  1  0  0  0
  6 21  1  0  0  0
  6 22  1  0  0  0
  7 23  1  0  0  0
  7 24  1  0  0  0
  7 25  1  0  0  0
  8  9  1  0  0  0
  8 10  1  0  0  0
  8 26  1  0  0  0
  9 27  1  0  0  0
  9 28  1  0  0  0
  9 29  1  0  0  0
 10 30  1  0  0  0
 10 31  1  0  0  0
 10 32  1  0  0  0
M  END
>  <i_m_Spin_multiplicity> (1)
1

>  <s_j_Task> (1)
Single Point

>  <s_j_QM_Method> (1)
DFT(b3lyp-d3)

>  <s_j_QM_Basis> (1)
cc-pvtz(-f)

>  <i_j_Number_of_canonical_orbitals> (1)
426

>  <i_j_Geometry_convergence_category> (1)
3

>  <r_j_Gas_Phase_Energy> (1)
-394.496900522998

>  <r_j_Final_Energy> (1)
-394.496900522998

>  <r_j_HOMO> (1)
-0.29483718129109

>  <r_j_LUMO> (1)
0.0270302526184284

>  <r_j_Polarizability> (1)
122.314200384299

>  <r_j_QM_Dipole_(debye)> (1)
0.0448877283278094

>  <r_j_QM_Dipole_X_(debye)> (1)
0.032338565285919

>  <r_j_QM_Dipole_Y_(debye)> (1)
0.0185877984272098

>  <r_j_QM_Dipole_Z_(debye)> (1)
0.0249723667142103

>  <r_j_Lowest_Frequency_(cm-1)> (1)
70.7844365765458

>  <r_j_Highest_Frequency_(cm-1)> (1)
3065.09077666769

>  <r_j_2nd_Lowest_Frequency_(cm-1)> (1)
92.1710613334198

>  <i_j_Num_Negative_Frequencies> (1)
0

>  <r_j_Zero_Point_Energy_(kcal/mol)> (1)
189.819887852563

>  <r_j_Entropy_(cal/mol/K)_298.15K_1.00E+00atm> (1)
106.800608763725

>  <r_j_Enthalpy_(kcal/mol)_298.15K_1.00E+00atm> (1)
8.44274575479057

>  <r_j_Free_Energy_(kcal/mol)_298.15K_1.00E+00atm> (1)
-23.3998557481141

>  <r_j_Internal_Energy_(kcal/mol)_298.15K_1.00E+00atm> (1)
7.8502601659633

>  <r_j_Heat_Capacity_(cal/mol/K)_298.15K_1.00E+00atm> (1)
48.50778459948

>  <r_j_ln(Q)_298.15K_1.00E+00atm> (1)
39.4943880313278

>  <r_j_Total_Internal_Energy_(au)_298.15K_1.00E+00atm> (1)
-394.181893088897

>  <r_j_Total_Enthalpy_(au)_298.15K_1.00E+00atm> (1)
-394.180948903005

>  <r_j_Total_Free_Energy_(au)_298.15K_1.00E+00atm> (1)
-394.231693318867

>  <r_lp_tautomer_probability> (1)
1

>  <r_epik_Ionization_Penalty> (1)
  0.0000

>  <r_epik_Ionization_Penalty_Charging> (1)
  0.0000

>  <r_epik_Ionization_Penalty_Neutral> (1)
  0.0000

>  <r_epik_State_Penalty> (1)
  0.0000

>  <r_epik_Charging_Adjusted_Penalty> (1)
0

>  <i_epik_Tot_Q> (1)
0

>  <i_epik_Tot_abs_Q> (1)
0

>  <s_lp_Force_Field> (1)
S-OPLS

>  <r_lp_Energy> (1)
7.96449

>  <b_lp_Chiralities_Consistent> (1)
1

$$$$
