139990_4,5-dimethyloctane
                    3D
 Schrodinger Suite 2021-3.
 32 31  0  0  1  0            999 V2000
   -2.6384   -1.4053    2.6069 C   0  0  0  0  0  0
   -2.1416   -0.8439    1.2704 C   0  0  0  0  0  0
   -0.6087   -0.7746    1.2019 C   0  0  0  0  0  0
   -0.0284   -0.0293   -0.0211 C   0  0  0  0  0  0
   -0.5486   -0.6520   -1.3284 C   0  0  0  0  0  0
    1.5291    0.0272    0.0190 C   0  0  0  0  0  0
    2.0505    0.6417    1.3298 C   0  0  0  0  0  0
    2.1086    0.7803   -1.1997 C   0  0  0  0  0  0
    3.6415    0.8419   -1.2738 C   0  0  0  0  0  0
    4.1360    1.4135   -2.6068 C   0  0  0  0  0  0
   -3.7315   -1.4641    2.6375 H   0  0  0  0  0  0
   -2.3137   -0.7784    3.4454 H   0  0  0  0  0  0
   -2.2456   -2.4142    2.7795 H   0  0  0  0  0  0
   -2.5339   -1.4644    0.4566 H   0  0  0  0  0  0
   -2.5567    0.1620    1.1165 H   0  0  0  0  0  0
   -0.2635   -0.2874    2.1201 H   0  0  0  0  0  0
   -0.1992   -1.7960    1.2271 H   0  0  0  0  0  0
   -0.3911    1.0108    0.0253 H   0  0  0  0  0  0
   -0.1770   -1.6784   -1.4416 H   0  0  0  0  0  0
   -0.2409   -0.0856   -2.2100 H   0  0  0  0  0  0
   -1.6405   -0.6907   -1.3444 H   0  0  0  0  0  0
    1.8918   -1.0125   -0.0340 H   0  0  0  0  0  0
    1.6748    1.6655    1.4524 H   0  0  0  0  0  0
    3.1422    0.6850    1.3429 H   0  0  0  0  0  0
    1.7477    0.0667    2.2075 H   0  0  0  0  0  0
    1.7572    0.3035   -2.1209 H   0  0  0  0  0  0
    1.7045    1.8040   -1.2140 H   0  0  0  0  0  0
    4.0406    1.4523   -0.4556 H   0  0  0  0  0  0
    4.0516   -0.1677   -1.1313 H   0  0  0  0  0  0
    5.2293    1.4665   -2.6413 H   0  0  0  0  0  0
    3.7481    2.4260   -2.7681 H   0  0  0  0  0  0
    3.8044    0.7964   -3.4500 H   0  0  0  0  0  0
  1  2  1  0  0  0
  1 11  1  0  0  0
  1 12  1  0  0  0
  1 13  1  0  0  0
  2  3  1  0  0  0
  2 14  1  0  0  0
  2 15  1  0  0  0
  3  4  1  0  0  0
  3 16  1  0  0  0
  3 17  1  0  0  0
  4  5  1  0  0  0
  4  6  1  0  0  0
  4 18  1  0  0  0
  5 19  1  0  0  0
  5 20  1  0  0  0
  5 21  1  0  0  0
  6  7  1  0  0  0
  6  8  1  0  0  0
  6 22  1  0  0  0
  7 23  1  0  0  0
  7 24  1  0  0  0
  7 25  1  0  0  0
  8  9  1  0  0  0
  8 26  1  0  0  0
  8 27  1  0  0  0
  9 10  1  0  0  0
  9 28  1  0  0  0
  9 29  1  0  0  0
 10 30  1  0  0  0
 10 31  1  0  0  0
 10 32  1  0  0  0
M  END
>  <i_m_Spin_multiplicity> (1)
1

>  <s_j_Task> (1)
Single Point

>  <s_j_QM_Method> (1)
DFT(b3lyp-d3)

>  <s_j_QM_Basis> (1)
cc-pvtz(-f)

>  <i_j_Number_of_canonical_orbitals> (1)
425

>  <i_j_Geometry_convergence_category> (1)
0

>  <r_j_Gas_Phase_Energy> (1)
-394.495302985525

>  <r_j_Final_Energy> (1)
-394.495302985525

>  <r_j_HOMO> (1)
-0.294662007873029

>  <r_j_LUMO> (1)
0.0228095946236715

>  <r_j_Polarizability> (1)
123.719095019902

>  <r_j_QM_Dipole_(debye)> (1)
0.000666736036029665

>  <r_j_QM_Dipole_X_(debye)> (1)
-0.000545163163454981

>  <r_j_QM_Dipole_Y_(debye)> (1)
-0.000329096525619382

>  <r_j_QM_Dipole_Z_(debye)> (1)
-0.000197558962787215

>  <r_j_Lowest_Frequency_(cm-1)> (1)
54.2367144825839

>  <r_j_Highest_Frequency_(cm-1)> (1)
3072.71083776337

>  <r_j_2nd_Lowest_Frequency_(cm-1)> (1)
110.795314510986

>  <i_j_Num_Negative_Frequencies> (1)
0

>  <r_j_Zero_Point_Energy_(kcal/mol)> (1)
189.494282789171

>  <r_j_Entropy_(cal/mol/K)_298.15K_1.00E+00atm> (1)
108.205476755441

>  <r_j_Enthalpy_(kcal/mol)_298.15K_1.00E+00atm> (1)
8.61306750517234

>  <r_j_Free_Energy_(kcal/mol)_298.15K_1.00E+00atm> (1)
-23.6483953894623

>  <r_j_Internal_Energy_(kcal/mol)_298.15K_1.00E+00atm> (1)
8.02058191634506

>  <r_j_Heat_Capacity_(cal/mol/K)_298.15K_1.00E+00atm> (1)
48.8515390739297

>  <r_j_ln(Q)_298.15K_1.00E+00atm> (1)
39.9138744222797

>  <r_j_Total_Internal_Energy_(au)_298.15K_1.00E+00atm> (1)
-394.180543011137

>  <r_j_Total_Enthalpy_(au)_298.15K_1.00E+00atm> (1)
-394.179598825245

>  <r_j_Total_Free_Energy_(au)_298.15K_1.00E+00atm> (1)
-394.231010739227

>  <r_lp_tautomer_probability> (1)
1

>  <r_epik_Ionization_Penalty> (1)
  0.0000

>  <r_epik_Ionization_Penalty_Charging> (1)
  0.0000

>  <r_epik_Ionization_Penalty_Neutral> (1)
  0.0000

>  <r_epik_State_Penalty> (1)
  0.0000

>  <r_epik_Charging_Adjusted_Penalty> (1)
0

>  <i_epik_Tot_Q> (1)
0

>  <i_epik_Tot_abs_Q> (1)
0

>  <s_lp_Force_Field> (1)
S-OPLS

>  <r_lp_Energy> (1)
9.177498

>  <b_lp_Chiralities_Consistent> (1)
1

$$$$
