14018_3-methyl-3-ethylpentane
                    3D
 Schrodinger Suite 2021-3.
 26 25  0  0  1  0            999 V2000
   -0.6792    1.4606    0.0869 C   0  0  0  0  0  0
   -0.0179    0.0828   -0.0512 C   0  0  0  0  0  0
    1.5353    0.0497   -0.0867 C   0  0  0  0  0  0
    2.0503    0.7763   -1.3464 C   0  0  0  0  0  0
    2.0838    0.7458    1.1901 C   0  0  0  0  0  0
    3.6034    0.7109    1.4004 C   0  0  0  0  0  0
    2.0078   -1.4308   -0.0967 C   0  0  0  0  0  0
    1.4680   -2.3230   -1.2224 C   0  0  0  0  0  0
   -1.7687    1.3644    0.0304 H   0  0  0  0  0  0
   -0.3705    2.1425   -0.7120 H   0  0  0  0  0  0
   -0.4449    1.9385    1.0426 H   0  0  0  0  0  0
   -0.3568   -0.5563    0.7765 H   0  0  0  0  0  0
   -0.3960   -0.3843   -0.9681 H   0  0  0  0  0  0
    3.1310    0.6497   -1.4674 H   0  0  0  0  0  0
    1.8489    1.8512   -1.2980 H   0  0  0  0  0  0
    1.5711    0.3930   -2.2529 H   0  0  0  0  0  0
    1.7680    1.7954    1.1758 H   0  0  0  0  0  0
    1.5952    0.2942    2.0652 H   0  0  0  0  0  0
    3.8755    1.2902    2.2890 H   0  0  0  0  0  0
    4.1421    1.1443    0.5515 H   0  0  0  0  0  0
    3.9778   -0.3062    1.5489 H   0  0  0  0  0  0
    3.1027   -1.4452   -0.1486 H   0  0  0  0  0  0
    1.7442   -1.8828    0.8701 H   0  0  0  0  0  0
    1.9222   -3.3179   -1.1670 H   0  0  0  0  0  0
    1.6982   -1.9144   -2.2117 H   0  0  0  0  0  0
    0.3840   -2.4571   -1.1608 H   0  0  0  0  0  0
  1  2  1  0  0  0
  1  9  1  0  0  0
  1 10  1  0  0  0
  1 11  1  0  0  0
  2  3  1  0  0  0
  2 12  1  0  0  0
  2 13  1  0  0  0
  3  4  1  0  0  0
  3  5  1  0  0  0
  3  7  1  0  0  0
  4 14  1  0  0  0
  4 15  1  0  0  0
  4 16  1  0  0  0
  5  6  1  0  0  0
  5 17  1  0  0  0
  5 18  1  0  0  0
  6 19  1  0  0  0
  6 20  1  0  0  0
  6 21  1  0  0  0
  7  8  1  0  0  0
  7 22  1  0  0  0
  7 23  1  0  0  0
  8 24  1  0  0  0
  8 25  1  0  0  0
  8 26  1  0  0  0
M  END
>  <i_m_Spin_multiplicity> (1)
1

>  <s_j_Task> (1)
Single Point

>  <s_j_QM_Method> (1)
DFT(b3lyp-d3)

>  <s_j_QM_Basis> (1)
cc-pvtz(-f)

>  <i_j_Number_of_canonical_orbitals> (1)
343

>  <i_j_Geometry_convergence_category> (1)
0

>  <r_j_Gas_Phase_Energy> (1)
-315.837014758854

>  <r_j_Final_Energy> (1)
-315.837014758854

>  <r_j_HOMO> (1)
-0.300737700035683

>  <r_j_LUMO> (1)
0.0272576182975995

>  <r_j_Polarizability> (1)
97.3395059101927

>  <r_j_QM_Dipole_(debye)> (1)
0.0511433174078065

>  <r_j_QM_Dipole_X_(debye)> (1)
-0.01698714867789

>  <r_j_QM_Dipole_Y_(debye)> (1)
-0.024216448596023

>  <r_j_QM_Dipole_Z_(debye)> (1)
0.0417209696995058

>  <r_j_Lowest_Frequency_(cm-1)> (1)
114.00320208212

>  <r_j_Highest_Frequency_(cm-1)> (1)
3060.8928787873

>  <r_j_2nd_Lowest_Frequency_(cm-1)> (1)
148.658922288894

>  <i_j_Num_Negative_Frequencies> (1)
0

>  <r_j_Zero_Point_Energy_(kcal/mol)> (1)
153.84859244918

>  <r_j_Entropy_(cal/mol/K)_298.15K_1.00E+00atm> (1)
94.3256408905873

>  <r_j_Enthalpy_(kcal/mol)_298.15K_1.00E+00atm> (1)
6.94174507136632

>  <r_j_Free_Energy_(kcal/mol)_298.15K_1.00E+00atm> (1)
-21.1814447601623

>  <r_j_Internal_Energy_(kcal/mol)_298.15K_1.00E+00atm> (1)
6.34925948253904

>  <r_j_Heat_Capacity_(cal/mol/K)_298.15K_1.00E+00atm> (1)
39.5512962141595

>  <r_j_ln(Q)_298.15K_1.00E+00atm> (1)
35.7501433951962

>  <r_j_Total_Internal_Energy_(au)_298.15K_1.00E+00atm> (1)
-315.581723230056

>  <r_j_Total_Enthalpy_(au)_298.15K_1.00E+00atm> (1)
-315.580779044163

>  <r_j_Total_Free_Energy_(au)_298.15K_1.00E+00atm> (1)
-315.6255962002

>  <r_lp_tautomer_probability> (1)
1

>  <r_epik_Ionization_Penalty> (1)
  0.0000

>  <r_epik_Ionization_Penalty_Charging> (1)
  0.0000

>  <r_epik_Ionization_Penalty_Neutral> (1)
  0.0000

>  <r_epik_State_Penalty> (1)
  0.0000

>  <r_epik_Charging_Adjusted_Penalty> (1)
0

>  <i_epik_Tot_Q> (1)
0

>  <i_epik_Tot_abs_Q> (1)
0

>  <s_lp_Force_Field> (1)
S-OPLS

>  <r_lp_Energy> (1)
9.63727

>  <b_lp_Chiralities_Consistent> (1)
1

$$$$
