14020_3,3-diethylpentane
                    3D
 Schrodinger Suite 2021-3.
 29 28  0  0  1  0            999 V2000
   -0.6945    1.4462    0.1018 C   0  0  0  0  0  0
   -0.0530    0.0611   -0.0560 C   0  0  0  0  0  0
    1.4998    0.0002    0.0004 C   0  0  0  0  0  0
    1.9428   -1.4902   -0.0242 C   0  0  0  0  0  0
    1.6355   -2.2792   -1.3039 C   0  0  0  0  0  0
    2.0746    0.7707   -1.2220 C   0  0  0  0  0  0
    3.5939    0.7029   -1.4269 C   0  0  0  0  0  0
    2.0347    0.6593    1.3034 C   0  0  0  0  0  0
    1.4667    0.1293    2.6269 C   0  0  0  0  0  0
   -1.7843    1.3701    0.0263 H   0  0  0  0  0  0
   -0.3632    2.1433   -0.6740 H   0  0  0  0  0  0
   -0.4650    1.8973    1.0722 H   0  0  0  0  0  0
   -0.4591   -0.6045    0.7161 H   0  0  0  0  0  0
   -0.3818   -0.3620   -1.0129 H   0  0  0  0  0  0
    3.0220   -1.5392    0.1684 H   0  0  0  0  0  0
    1.4689   -2.0065    0.8193 H   0  0  0  0  0  0
    1.9740   -3.3155   -1.2007 H   0  0  0  0  0  0
    2.1397   -1.8564   -2.1784 H   0  0  0  0  0  0
    0.5634   -2.3079   -1.5214 H   0  0  0  0  0  0
    1.5808    0.4054   -2.1313 H   0  0  0  0  0  0
    1.7870    1.8252   -1.1335 H   0  0  0  0  0  0
    3.8852    1.2939   -2.3016 H   0  0  0  0  0  0
    3.9406   -0.3215   -1.5946 H   0  0  0  0  0  0
    4.1425    1.1018   -0.5682 H   0  0  0  0  0  0
    3.1250    0.5441    1.3278 H   0  0  0  0  0  0
    1.8530    1.7402    1.2507 H   0  0  0  0  0  0
    1.9261    0.6515    3.4727 H   0  0  0  0  0  0
    1.6627   -0.9391    2.7596 H   0  0  0  0  0  0
    0.3849    0.2789    2.6992 H   0  0  0  0  0  0
  1  2  1  0  0  0
  1 10  1  0  0  0
  1 11  1  0  0  0
  1 12  1  0  0  0
  2  3  1  0  0  0
  2 13  1  0  0  0
  2 14  1  0  0  0
  3  4  1  0  0  0
  3  6  1  0  0  0
  3  8  1  0  0  0
  4  5  1  0  0  0
  4 15  1  0  0  0
  4 16  1  0  0  0
  5 17  1  0  0  0
  5 18  1  0  0  0
  5 19  1  0  0  0
  6  7  1  0  0  0
  6 20  1  0  0  0
  6 21  1  0  0  0
  7 22  1  0  0  0
  7 23  1  0  0  0
  7 24  1  0  0  0
  8  9  1  0  0  0
  8 25  1  0  0  0
  8 26  1  0  0  0
  9 27  1  0  0  0
  9 28  1  0  0  0
  9 29  1  0  0  0
M  END
>  <i_m_Spin_multiplicity> (1)
1

>  <s_j_Task> (1)
Single Point

>  <s_j_QM_Method> (1)
DFT(b3lyp-d3)

>  <s_j_QM_Basis> (1)
cc-pvtz(-f)

>  <i_j_Number_of_canonical_orbitals> (1)
383

>  <i_j_Geometry_convergence_category> (1)
1

>  <r_j_Gas_Phase_Energy> (1)
-355.165186791435

>  <r_j_Final_Energy> (1)
-355.165186791435

>  <r_j_HOMO> (1)
-0.29657219237485

>  <r_j_LUMO> (1)
0.0266682013706092

>  <r_j_Polarizability> (1)
108.284285277282

>  <r_j_QM_Dipole_(debye)> (1)
0.000225067464760973

>  <r_j_QM_Dipole_X_(debye)> (1)
-4.29898695383101e-05

>  <r_j_QM_Dipole_Y_(debye)> (1)
-0.000183766584519928

>  <r_j_QM_Dipole_Z_(debye)> (1)
-0.000122625760853464

>  <r_j_Lowest_Frequency_(cm-1)> (1)
136.89998876307

>  <r_j_Highest_Frequency_(cm-1)> (1)
3060.76524253897

>  <r_j_2nd_Lowest_Frequency_(cm-1)> (1)
151.688205819586

>  <i_j_Num_Negative_Frequencies> (1)
0

>  <r_j_Zero_Point_Energy_(kcal/mol)> (1)
171.969843573169

>  <r_j_Entropy_(cal/mol/K)_298.15K_1.00E+00atm> (1)
99.185907704405

>  <r_j_Enthalpy_(kcal/mol)_298.15K_1.00E+00atm> (1)
7.63850481904684

>  <r_j_Free_Energy_(kcal/mol)_298.15K_1.00E+00atm> (1)
-21.9337735630215

>  <r_j_Internal_Energy_(kcal/mol)_298.15K_1.00E+00atm> (1)
7.04601923021957

>  <r_j_Heat_Capacity_(cal/mol/K)_298.15K_1.00E+00atm> (1)
44.2752188208053

>  <r_j_ln(Q)_298.15K_1.00E+00atm> (1)
37.0199275334877

>  <r_j_Total_Internal_Energy_(au)_298.15K_1.00E+00atm> (1)
-354.879906853263

>  <r_j_Total_Enthalpy_(au)_298.15K_1.00E+00atm> (1)
-354.878962667371

>  <r_j_Total_Free_Energy_(au)_298.15K_1.00E+00atm> (1)
-354.92608909302

>  <r_lp_tautomer_probability> (1)
1

>  <r_epik_Ionization_Penalty> (1)
  0.0000

>  <r_epik_Ionization_Penalty_Charging> (1)
  0.0000

>  <r_epik_Ionization_Penalty_Neutral> (1)
  0.0000

>  <r_epik_State_Penalty> (1)
  0.0000

>  <r_epik_Charging_Adjusted_Penalty> (1)
0

>  <i_epik_Tot_Q> (1)
0

>  <i_epik_Tot_abs_Q> (1)
0

>  <s_lp_Force_Field> (1)
S-OPLS

>  <r_lp_Energy> (1)
11.8674

>  <b_lp_Chiralities_Consistent> (1)
1

$$$$
