14045_2,3,5-trimethylhexane
                    3D
 Schrodinger Suite 2021-3.
 29 28  0  0  1  0            999 V2000
   -0.0935    2.3785    1.1529 C   0  0  0  0  0  0
   -0.6063    1.4892    0.0116 C   0  0  0  0  0  0
   -2.1369    1.3743    0.0662 C   0  0  0  0  0  0
    0.0243    0.0824    0.0417 C   0  0  0  0  0  0
    1.5668   -0.0020    0.0042 C   0  0  0  0  0  0
    2.1329    0.7917   -1.1849 C   0  0  0  0  0  0
    2.0503   -1.4802   -0.0086 C   0  0  0  0  0  0
    1.5014   -2.2878    1.1803 C   0  0  0  0  0  0
    3.5847   -1.5909   -0.0228 C   0  0  0  0  0  0
   -0.2926    1.9113    2.1256 H   0  0  0  0  0  0
   -0.5909    3.3545    1.1449 H   0  0  0  0  0  0
    0.9842    2.5553    1.0840 H   0  0  0  0  0  0
   -0.3480    1.9720   -0.9404 H   0  0  0  0  0  0
   -2.4598    0.9151    1.0090 H   0  0  0  0  0  0
   -2.5208    0.7561   -0.7529 H   0  0  0  0  0  0
   -2.6120    2.3588   -0.0035 H   0  0  0  0  0  0
   -0.3410   -0.4139    0.9490 H   0  0  0  0  0  0
   -0.3749   -0.4969   -0.8045 H   0  0  0  0  0  0
    1.9578    0.4483    0.9296 H   0  0  0  0  0  0
    1.7883    0.3642   -2.1350 H   0  0  0  0  0  0
    3.2253    0.7935   -1.1947 H   0  0  0  0  0  0
    1.8138    1.8369   -1.1581 H   0  0  0  0  0  0
    1.6702   -1.9400   -0.9346 H   0  0  0  0  0  0
    1.7732   -1.8110    2.1307 H   0  0  0  0  0  0
    1.9218   -3.2989    1.1866 H   0  0  0  0  0  0
    0.4137   -2.3879    1.1553 H   0  0  0  0  0  0
    4.0192   -1.0698    0.8396 H   0  0  0  0  0  0
    4.0284   -1.1685   -0.9277 H   0  0  0  0  0  0
    3.8966   -2.6391    0.0339 H   0  0  0  0  0  0
  1  2  1  0  0  0
  1 10  1  0  0  0
  1 11  1  0  0  0
  1 12  1  0  0  0
  2  3  1  0  0  0
  2  4  1  0  0  0
  2 13  1  0  0  0
  3 14  1  0  0  0
  3 15  1  0  0  0
  3 16  1  0  0  0
  4  5  1  0  0  0
  4 17  1  0  0  0
  4 18  1  0  0  0
  5  6  1  0  0  0
  5  7  1  0  0  0
  5 19  1  0  0  0
  6 20  1  0  0  0
  6 21  1  0  0  0
  6 22  1  0  0  0
  7  8  1  0  0  0
  7  9  1  0  0  0
  7 23  1  0  0  0
  8 24  1  0  0  0
  8 25  1  0  0  0
  8 26  1  0  0  0
  9 27  1  0  0  0
  9 28  1  0  0  0
  9 29  1  0  0  0
M  END
>  <i_m_Spin_multiplicity> (1)
1

>  <s_j_Task> (1)
Single Point

>  <s_j_QM_Method> (1)
DFT(b3lyp-d3)

>  <s_j_QM_Basis> (1)
cc-pvtz(-f)

>  <i_j_Number_of_canonical_orbitals> (1)
383

>  <i_j_Geometry_convergence_category> (1)
1

>  <r_j_Gas_Phase_Energy> (1)
-355.169441222241

>  <r_j_Final_Energy> (1)
-355.169441222241

>  <r_j_HOMO> (1)
-0.30013234892537

>  <r_j_LUMO> (1)
0.0252970410122277

>  <r_j_Polarizability> (1)
110.262748675937

>  <r_j_QM_Dipole_(debye)> (1)
0.103772513340767

>  <r_j_QM_Dipole_X_(debye)> (1)
0.0161195557808407

>  <r_j_QM_Dipole_Y_(debye)> (1)
0.0184697860629746

>  <r_j_QM_Dipole_Z_(debye)> (1)
-0.100835318461718

>  <r_j_Lowest_Frequency_(cm-1)> (1)
82.5968028402306

>  <r_j_Highest_Frequency_(cm-1)> (1)
3073.6747969289

>  <r_j_2nd_Lowest_Frequency_(cm-1)> (1)
97.4648478253818

>  <i_j_Num_Negative_Frequencies> (1)
0

>  <r_j_Zero_Point_Energy_(kcal/mol)> (1)
171.504754154012

>  <r_j_Entropy_(cal/mol/K)_298.15K_1.00E+00atm> (1)
100.684896503772

>  <r_j_Enthalpy_(kcal/mol)_298.15K_1.00E+00atm> (1)
7.71432704064682

>  <r_j_Free_Energy_(kcal/mol)_298.15K_1.00E+00atm> (1)
-22.3048748519527

>  <r_j_Internal_Energy_(kcal/mol)_298.15K_1.00E+00atm> (1)
7.12184145181954

>  <r_j_Heat_Capacity_(cal/mol/K)_298.15K_1.00E+00atm> (1)
44.3936767636606

>  <r_j_ln(Q)_298.15K_1.00E+00atm> (1)
37.6462740572331

>  <r_j_Total_Internal_Energy_(au)_298.15K_1.00E+00atm> (1)
-354.884781620839

>  <r_j_Total_Enthalpy_(au)_298.15K_1.00E+00atm> (1)
-354.883837434947

>  <r_j_Total_Free_Energy_(au)_298.15K_1.00E+00atm> (1)
-354.931676078549

>  <r_lp_tautomer_probability> (1)
1

>  <r_epik_Ionization_Penalty> (1)
  0.0000

>  <r_epik_Ionization_Penalty_Charging> (1)
  0.0000

>  <r_epik_Ionization_Penalty_Neutral> (1)
  0.0000

>  <r_epik_State_Penalty> (1)
  0.0000

>  <r_epik_Charging_Adjusted_Penalty> (1)
0

>  <i_epik_Tot_Q> (1)
0

>  <i_epik_Tot_abs_Q> (1)
0

>  <s_lp_Force_Field> (1)
S-OPLS

>  <r_lp_Energy> (1)
6.95775

>  <b_lp_Chiralities_Consistent> (1)
1

$$$$
