140599_2,3-dimethyl-2-octene
                    3D
 Schrodinger Suite 2021-3.
 30 29  0  0  1  0            999 V2000
   -2.7066    2.8690   -0.0085 C   0  0  0  0  0  0
   -2.1286    1.4546    0.0969 C   0  0  0  0  0  0
   -0.6028    1.4164   -0.0491 C   0  0  0  0  0  0
   -0.0186    0.0043    0.0608 C   0  0  0  0  0  0
    1.5155   -0.0349   -0.0728 C   0  0  0  0  0  0
    2.0711   -1.4502   -0.0270 C   0  0  0  0  0  0
    2.3567   -2.0841    1.1280 C   0  0  0  0  0  0
    2.8904   -3.4955    1.2250 C   0  0  0  0  0  0
    2.1660   -1.4551    2.4912 C   0  0  0  0  0  0
    2.2135   -2.0651   -1.4013 C   0  0  0  0  0  0
   -3.7963    2.8684    0.0985 H   0  0  0  0  0  0
   -2.4665    3.3215   -0.9777 H   0  0  0  0  0  0
   -2.2950    3.5216    0.7702 H   0  0  0  0  0  0
   -2.4095    1.0130    1.0628 H   0  0  0  0  0  0
   -2.5807    0.8135   -0.6722 H   0  0  0  0  0  0
   -0.3186    1.8556   -1.0164 H   0  0  0  0  0  0
   -0.1483    2.0589    0.7191 H   0  0  0  0  0  0
   -0.3021   -0.4383    1.0247 H   0  0  0  0  0  0
   -0.4666   -0.6388   -0.7092 H   0  0  0  0  0  0
    1.7969    0.4294   -1.0275 H   0  0  0  0  0  0
    1.9592    0.5961    0.7051 H   0  0  0  0  0  0
    2.1970   -4.1323    1.7911 H   0  0  0  0  0  0
    3.8387   -3.5069    1.7790 H   0  0  0  0  0  0
    3.0681   -3.9730    0.2612 H   0  0  0  0  0  0
    1.4725   -2.0573    3.0936 H   0  0  0  0  0  0
    1.7736   -0.4382    2.4607 H   0  0  0  0  0  0
    3.1142   -1.4338    3.0453 H   0  0  0  0  0  0
    2.9961   -1.5502   -1.9750 H   0  0  0  0  0  0
    1.2828   -1.9395   -1.9699 H   0  0  0  0  0  0
    2.4509   -3.1294   -1.3948 H   0  0  0  0  0  0
  1  2  1  0  0  0
  1 11  1  0  0  0
  1 12  1  0  0  0
  1 13  1  0  0  0
  2  3  1  0  0  0
  2 14  1  0  0  0
  2 15  1  0  0  0
  3  4  1  0  0  0
  3 16  1  0  0  0
  3 17  1  0  0  0
  4  5  1  0  0  0
  4 18  1  0  0  0
  4 19  1  0  0  0
  5  6  1  0  0  0
  5 20  1  0  0  0
  5 21  1  0  0  0
  6  7  2  0  0  0
  6 10  1  0  0  0
  7  8  1  0  0  0
  7  9  1  0  0  0
  8 22  1  0  0  0
  8 23  1  0  0  0
  8 24  1  0  0  0
  9 25  1  0  0  0
  9 26  1  0  0  0
  9 27  1  0  0  0
 10 28  1  0  0  0
 10 29  1  0  0  0
 10 30  1  0  0  0
M  END
>  <i_m_Spin_multiplicity> (1)
1

>  <s_j_Task> (1)
Single Point

>  <s_j_QM_Method> (1)
DFT(b3lyp-d3)

>  <s_j_QM_Basis> (1)
cc-pvtz(-f)

>  <i_j_Number_of_canonical_orbitals> (1)
406

>  <i_j_Geometry_convergence_category> (1)
3

>  <r_j_Gas_Phase_Energy> (1)
-393.268318326376

>  <r_j_Final_Energy> (1)
-393.268318326376

>  <r_j_HOMO> (1)
-0.235061991470541

>  <r_j_LUMO> (1)
0.00847401590690195

>  <r_j_Polarizability> (1)
124.754179883647

>  <r_j_QM_Dipole_(debye)> (1)
0.0879574509978644

>  <r_j_QM_Dipole_X_(debye)> (1)
-0.0743741150503663

>  <r_j_QM_Dipole_Y_(debye)> (1)
-0.0461867290348203

>  <r_j_QM_Dipole_Z_(debye)> (1)
0.00847291316966528

>  <r_j_Lowest_Frequency_(cm-1)> (1)
64.6336938341307

>  <r_j_Highest_Frequency_(cm-1)> (1)
3097.48642417463

>  <r_j_2nd_Lowest_Frequency_(cm-1)> (1)
92.2005575091453

>  <i_j_Num_Negative_Frequencies> (1)
0

>  <r_j_Zero_Point_Energy_(kcal/mol)> (1)
174.294990691695

>  <r_j_Entropy_(cal/mol/K)_298.15K_1.00E+00atm> (1)
107.49639952906

>  <r_j_Enthalpy_(kcal/mol)_298.15K_1.00E+00atm> (1)
8.49154376428796

>  <r_j_Free_Energy_(kcal/mol)_298.15K_1.00E+00atm> (1)
-23.5585077553013

>  <r_j_Internal_Energy_(kcal/mol)_298.15K_1.00E+00atm> (1)
7.89905817546068

>  <r_j_Heat_Capacity_(cal/mol/K)_298.15K_1.00E+00atm> (1)
47.7121937309821

>  <r_j_ln(Q)_298.15K_1.00E+00atm> (1)
39.7621616450308

>  <r_j_Total_Internal_Energy_(au)_298.15K_1.00E+00atm> (1)
-392.977973626291

>  <r_j_Total_Enthalpy_(au)_298.15K_1.00E+00atm> (1)
-392.977029440399

>  <r_j_Total_Free_Energy_(au)_298.15K_1.00E+00atm> (1)
-393.028104448908

>  <r_lp_tautomer_probability> (1)
1

>  <r_epik_Ionization_Penalty> (1)
  0.0000

>  <r_epik_Ionization_Penalty_Charging> (1)
  0.0000

>  <r_epik_Ionization_Penalty_Neutral> (1)
  0.0000

>  <r_epik_State_Penalty> (1)
  0.0000

>  <r_epik_Charging_Adjusted_Penalty> (1)
0

>  <i_epik_Tot_Q> (1)
0

>  <i_epik_Tot_abs_Q> (1)
0

>  <s_lp_Force_Field> (1)
S-OPLS

>  <r_lp_Energy> (1)
0.585323

>  <b_lp_Chiralities_Consistent> (1)
1

$$$$
