14050_2-Ethylhexyl Dihydrogen Phosphate
                    3D
 Schrodinger Suite 2021-3.
 30 29  0  0  1  0            999 V2000
   -2.7421    2.9888   -0.2731 C   0  0  0  0  0  0
   -2.2105    1.6073    0.1262 C   0  0  0  0  0  0
   -0.6849    1.4874    0.0257 C   0  0  0  0  0  0
   -0.1471    0.1023    0.4106 C   0  0  0  0  0  0
    1.3921   -0.0228    0.3913 C   0  0  0  0  0  0
    1.8518   -1.4843    0.2607 C   0  0  0  0  0  0
    1.6767   -2.0681   -1.1460 C   0  0  0  0  0  0
    2.0365    0.6274    1.6488 C   0  0  0  0  0  0
    3.4008    0.7819    1.5202 O   0  0  0  0  0  0
    4.4708   -0.3320    2.4906 P   0  0  1  0  0  0
    5.7021    0.5521    2.6714 O   0  0  0  0  0  0
    3.6085   -0.6049    3.7330 O   0  5  0  0  0  0
    4.6348   -1.5310    1.5308 O   0  5  0  0  0  0
   -3.8351    3.0543   -0.1905 H   0  0  0  0  0  0
   -2.4706    3.2286   -1.3089 H   0  0  0  0  0  0
   -2.3110    3.7707    0.3637 H   0  0  0  0  0  0
   -2.5217    1.3808    1.1559 H   0  0  0  0  0  0
   -2.6798    0.8382   -0.5057 H   0  0  0  0  0  0
   -0.3727    1.7223   -1.0037 H   0  0  0  0  0  0
   -0.2172    2.2474    0.6641 H   0  0  0  0  0  0
   -0.4993   -0.1497    1.4240 H   0  0  0  0  0  0
   -0.6068   -0.6408   -0.2611 H   0  0  0  0  0  0
    1.7773    0.5350   -0.4800 H   0  0  0  0  0  0
    2.9138   -1.5460    0.5769 H   0  0  0  0  0  0
    1.2871   -2.0953    0.9835 H   0  0  0  0  0  0
    2.0012   -3.1169   -1.1857 H   0  0  0  0  0  0
    2.2877   -1.5123   -1.8702 H   0  0  0  0  0  0
    0.6358   -2.0356   -1.5103 H   0  0  0  0  0  0
    1.5415    1.6199    1.8035 H   0  0  0  0  0  0
    1.7866    0.0138    2.5339 H   0  0  0  0  0  0
  1  2  1  0  0  0
  1 14  1  0  0  0
  1 15  1  0  0  0
  1 16  1  0  0  0
  2  3  1  0  0  0
  2 17  1  0  0  0
  2 18  1  0  0  0
  3  4  1  0  0  0
  3 19  1  0  0  0
  3 20  1  0  0  0
  4  5  1  0  0  0
  4 21  1  0  0  0
  4 22  1  0  0  0
  5  6  1  0  0  0
  5  8  1  0  0  0
  5 23  1  0  0  0
  6  7  1  0  0  0
  6 24  1  0  0  0
  6 25  1  0  0  0
  7 26  1  0  0  0
  7 27  1  0  0  0
  7 28  1  0  0  0
  8  9  1  0  0  0
  8 29  1  0  0  0
  8 30  1  0  0  0
  9 10  1  0  0  0
 10 11  2  0  0  0
 10 12  1  0  0  0
 10 13  1  0  0  0
M  END
>  <i_m_Spin_multiplicity> (1)
1

>  <s_j_Task> (1)
Single Point

>  <s_j_QM_Method> (1)
DFT(b3lyp-d3)

>  <s_j_QM_Basis> (1)
cc-pvtz(-f)

>  <i_j_Number_of_canonical_orbitals> (1)
454

>  <i_j_Geometry_convergence_category> (1)
3

>  <r_j_Gas_Phase_Energy> (1)
-957.672909711348

>  <r_j_Final_Energy> (1)
-957.672909711348

>  <r_j_HOMO> (1)
0.122963304350039

>  <r_j_LUMO> (1)
0.196765852823872

>  <r_j_Polarizability> (1)
145.491308788509

>  <r_j_QM_Dipole_(debye)> (1)
20.2642362555439

>  <r_j_QM_Dipole_X_(debye)> (1)
-17.8304315592077

>  <r_j_QM_Dipole_Y_(debye)> (1)
3.65166746777009

>  <r_j_QM_Dipole_Z_(debye)> (1)
-8.90956262325711

>  <r_j_Lowest_Frequency_(cm-1)> (1)
48.2816874820147

>  <r_j_Highest_Frequency_(cm-1)> (1)
3028.05405963006

>  <r_j_2nd_Lowest_Frequency_(cm-1)> (1)
63.9264069666654

>  <i_j_Num_Negative_Frequencies> (1)
0

>  <r_j_Zero_Point_Energy_(kcal/mol)> (1)
156.47475605152

>  <r_j_Entropy_(cal/mol/K)_298.15K_1.00E+00atm> (1)
119.473202266878

>  <r_j_Enthalpy_(kcal/mol)_298.15K_1.00E+00atm> (1)
9.86848011860714

>  <r_j_Free_Energy_(kcal/mol)_298.15K_1.00E+00atm> (1)
-25.7524551372624

>  <r_j_Internal_Energy_(kcal/mol)_298.15K_1.00E+00atm> (1)
9.27599452977987

>  <r_j_Heat_Capacity_(cal/mol/K)_298.15K_1.00E+00atm> (1)
55.639982396843

>  <r_j_ln(Q)_298.15K_1.00E+00atm> (1)
43.4651164904029

>  <r_j_Total_Internal_Energy_(au)_298.15K_1.00E+00atm> (1)
-957.408769075222

>  <r_j_Total_Enthalpy_(au)_298.15K_1.00E+00atm> (1)
-957.40782488933

>  <r_j_Total_Free_Energy_(au)_298.15K_1.00E+00atm> (1)
-957.464590463331

>  <r_epik_Ionization_Penalty> (1)
  0.1626

>  <r_epik_Ionization_Penalty_Charging> (1)
  0.1626

>  <r_epik_Ionization_Penalty_Neutral> (1)
  0.0000

>  <r_epik_State_Penalty> (1)
  0.1519

>  <r_epik_Charging_Adjusted_Penalty> (1)
0.314464892912321

>  <i_epik_Tot_Q> (1)
-2

>  <i_epik_Tot_abs_Q> (1)
2

>  <s_lp_Force_Field> (1)
S-OPLS

>  <r_lp_Energy> (1)
1.608628

>  <b_lp_Chiralities_Consistent> (1)
1

$$$$
