140667_2,3,5-trimethylheptane
                    3D
 Schrodinger Suite 2021-3.
 32 31  0  0  1  0            999 V2000
   -0.6260    3.7799    1.2078 C   0  0  0  0  0  0
   -0.0757    2.3491    1.1906 C   0  0  0  0  0  0
   -0.5932    1.4750    0.0317 C   0  0  0  0  0  0
   -2.1243    1.3406    0.0547 C   0  0  0  0  0  0
    0.0400    0.0673    0.0504 C   0  0  0  0  0  0
    1.5824   -0.0238    0.0095 C   0  0  0  0  0  0
    2.1493    0.7844   -1.1694 C   0  0  0  0  0  0
    2.0583   -1.5041   -0.0251 C   0  0  0  0  0  0
    1.5018   -2.3268    1.1499 C   0  0  0  0  0  0
    3.5922   -1.6209   -0.0351 C   0  0  0  0  0  0
   -0.1450    4.3758    1.9904 H   0  0  0  0  0  0
   -1.7041    3.8039    1.3941 H   0  0  0  0  0  0
   -0.4435    4.2811    0.2497 H   0  0  0  0  0  0
    1.0182    2.3999    1.1407 H   0  0  0  0  0  0
   -0.3126    1.8500    2.1416 H   0  0  0  0  0  0
   -0.3224    1.9727   -0.9103 H   0  0  0  0  0  0
   -2.4628    0.9110    1.0060 H   0  0  0  0  0  0
   -2.4715    0.6815   -0.7485 H   0  0  0  0  0  0
   -2.6238    2.3053   -0.0727 H   0  0  0  0  0  0
   -0.3269   -0.4389    0.9515 H   0  0  0  0  0  0
   -0.3594   -0.5029   -0.8017 H   0  0  0  0  0  0
    1.9797    0.4093    0.9402 H   0  0  0  0  0  0
    1.7963    0.3750   -2.1244 H   0  0  0  0  0  0
    3.2416    0.7779   -1.1850 H   0  0  0  0  0  0
    1.8384    1.8316   -1.1243 H   0  0  0  0  0  0
    1.6793   -1.9480   -0.9591 H   0  0  0  0  0  0
    1.7690   -1.8631    2.1081 H   0  0  0  0  0  0
    1.9207   -3.3386    1.1451 H   0  0  0  0  0  0
    0.4140   -2.4248    1.1176 H   0  0  0  0  0  0
    4.0251   -1.1166    0.8382 H   0  0  0  0  0  0
    4.0416   -1.1846   -0.9305 H   0  0  0  0  0  0
    3.8998   -2.6711    0.0049 H   0  0  0  0  0  0
  1  2  1  0  0  0
  1 11  1  0  0  0
  1 12  1  0  0  0
  1 13  1  0  0  0
  2  3  1  0  0  0
  2 14  1  0  0  0
  2 15  1  0  0  0
  3  4  1  0  0  0
  3  5  1  0  0  0
  3 16  1  0  0  0
  4 17  1  0  0  0
  4 18  1  0  0  0
  4 19  1  0  0  0
  5  6  1  0  0  0
  5 20  1  0  0  0
  5 21  1  0  0  0
  6  7  1  0  0  0
  6  8  1  0  0  0
  6 22  1  0  0  0
  7 23  1  0  0  0
  7 24  1  0  0  0
  7 25  1  0  0  0
  8  9  1  0  0  0
  8 10  1  0  0  0
  8 26  1  0  0  0
  9 27  1  0  0  0
  9 28  1  0  0  0
  9 29  1  0  0  0
 10 30  1  0  0  0
 10 31  1  0  0  0
 10 32  1  0  0  0
M  END
>  <i_m_Spin_multiplicity> (1)
1

>  <s_j_Task> (1)
Single Point

>  <s_j_QM_Method> (1)
DFT(b3lyp-d3)

>  <s_j_QM_Basis> (1)
cc-pvtz(-f)

>  <i_j_Number_of_canonical_orbitals> (1)
425

>  <i_j_Geometry_convergence_category> (1)
3

>  <r_j_Gas_Phase_Energy> (1)
-394.497733214497

>  <r_j_Final_Energy> (1)
-394.497733214497

>  <r_j_HOMO> (1)
-0.298142488592989

>  <r_j_LUMO> (1)
0.0257620217125425

>  <r_j_Polarizability> (1)
122.492241577939

>  <r_j_QM_Dipole_(debye)> (1)
0.0643255810027811

>  <r_j_QM_Dipole_X_(debye)> (1)
0.0490892197806067

>  <r_j_QM_Dipole_Y_(debye)> (1)
0.00482781508511248

>  <r_j_QM_Dipole_Z_(debye)> (1)
-0.0412882679968609

>  <r_j_Lowest_Frequency_(cm-1)> (1)
71.837661869266

>  <r_j_Highest_Frequency_(cm-1)> (1)
3073.08669355599

>  <r_j_2nd_Lowest_Frequency_(cm-1)> (1)
85.1937314414002

>  <i_j_Num_Negative_Frequencies> (1)
0

>  <r_j_Zero_Point_Energy_(kcal/mol)> (1)
189.427394762219

>  <r_j_Entropy_(cal/mol/K)_298.15K_1.00E+00atm> (1)
106.482204982371

>  <r_j_Enthalpy_(kcal/mol)_298.15K_1.00E+00atm> (1)
8.4813413993865

>  <r_j_Free_Energy_(kcal/mol)_298.15K_1.00E+00atm> (1)
-23.2663280161075

>  <r_j_Internal_Energy_(kcal/mol)_298.15K_1.00E+00atm> (1)
7.88885581055922

>  <r_j_Heat_Capacity_(cal/mol/K)_298.15K_1.00E+00atm> (1)
49.1857257157806

>  <r_j_ln(Q)_298.15K_1.00E+00atm> (1)
39.2690192889911

>  <r_j_Total_Internal_Energy_(au)_298.15K_1.00E+00atm> (1)
-394.183289751878

>  <r_j_Total_Enthalpy_(au)_298.15K_1.00E+00atm> (1)
-394.182345565986

>  <r_j_Total_Free_Energy_(au)_298.15K_1.00E+00atm> (1)
-394.232938697936

>  <r_lp_tautomer_probability> (1)
1

>  <r_epik_Ionization_Penalty> (1)
  0.0000

>  <r_epik_Ionization_Penalty_Charging> (1)
  0.0000

>  <r_epik_Ionization_Penalty_Neutral> (1)
  0.0000

>  <r_epik_State_Penalty> (1)
  0.0000

>  <r_epik_Charging_Adjusted_Penalty> (1)
0

>  <i_epik_Tot_Q> (1)
0

>  <i_epik_Tot_abs_Q> (1)
0

>  <s_lp_Force_Field> (1)
S-OPLS

>  <r_lp_Energy> (1)
8.257352

>  <b_lp_Chiralities_Consistent> (1)
1

$$$$
