14069_2,6-dimethylheptane
                    3D
 Schrodinger Suite 2021-3.
 29 28  0  0  1  0            999 V2000
   -0.1525    2.3651    1.2120 C   0  0  0  0  0  0
   -0.6356    1.4711    0.0606 C   0  0  0  0  0  0
   -2.1682    1.3791    0.0598 C   0  0  0  0  0  0
   -0.0125    0.0635    0.1105 C   0  0  0  0  0  0
    1.5172    0.0241    0.0008 C   0  0  0  0  0  0
    2.0642   -1.4050   -0.1092 C   0  0  0  0  0  0
    3.5991   -1.5233   -0.0607 C   0  0  0  0  0  0
    4.2800   -0.7691   -1.2123 C   0  0  0  0  0  0
    4.0231   -2.9990   -0.0613 C   0  0  0  0  0  0
   -0.4002    1.9134    2.1810 H   0  0  0  0  0  0
   -0.6320    3.3493    1.1724 H   0  0  0  0  0  0
    0.9297    2.5234    1.1841 H   0  0  0  0  0  0
   -0.3234    1.9391   -0.8857 H   0  0  0  0  0  0
   -2.5293    0.9202    0.9888 H   0  0  0  0  0  0
   -2.5328    0.7703   -0.7749 H   0  0  0  0  0  0
   -2.6274    2.3704   -0.0204 H   0  0  0  0  0  0
   -0.3235   -0.4312    1.0430 H   0  0  0  0  0  0
   -0.4397   -0.5365   -0.7056 H   0  0  0  0  0  0
    1.8264    0.6127   -0.8727 H   0  0  0  0  0  0
    1.9690    0.5116    0.8747 H   0  0  0  0  0  0
    1.6416   -2.0077    0.7073 H   0  0  0  0  0  0
    1.7007   -1.8631   -1.0414 H   0  0  0  0  0  0
    3.9371   -1.0736    0.8855 H   0  0  0  0  0  0
    3.9356   -1.1523   -2.1812 H   0  0  0  0  0  0
    5.3677   -0.8934   -1.1739 H   0  0  0  0  0  0
    4.0688    0.3040   -1.1833 H   0  0  0  0  0  0
    3.7098   -3.4917   -0.9903 H   0  0  0  0  0  0
    3.5715   -3.5461    0.7735 H   0  0  0  0  0  0
    5.1109   -3.1016    0.0177 H   0  0  0  0  0  0
  1  2  1  0  0  0
  1 10  1  0  0  0
  1 11  1  0  0  0
  1 12  1  0  0  0
  2  3  1  0  0  0
  2  4  1  0  0  0
  2 13  1  0  0  0
  3 14  1  0  0  0
  3 15  1  0  0  0
  3 16  1  0  0  0
  4  5  1  0  0  0
  4 17  1  0  0  0
  4 18  1  0  0  0
  5  6  1  0  0  0
  5 19  1  0  0  0
  5 20  1  0  0  0
  6  7  1  0  0  0
  6 21  1  0  0  0
  6 22  1  0  0  0
  7  8  1  0  0  0
  7  9  1  0  0  0
  7 23  1  0  0  0
  8 24  1  0  0  0
  8 25  1  0  0  0
  8 26  1  0  0  0
  9 27  1  0  0  0
  9 28  1  0  0  0
  9 29  1  0  0  0
M  END
>  <i_m_Spin_multiplicity> (1)
1

>  <s_j_Task> (1)
Single Point

>  <s_j_QM_Method> (1)
DFT(b3lyp-d3)

>  <s_j_QM_Basis> (1)
cc-pvtz(-f)

>  <i_j_Number_of_canonical_orbitals> (1)
384

>  <i_j_Geometry_convergence_category> (1)
3

>  <r_j_Gas_Phase_Energy> (1)
-355.171940546015

>  <r_j_Final_Energy> (1)
-355.171940546015

>  <r_j_HOMO> (1)
-0.30165528336518

>  <r_j_LUMO> (1)
0.0256074825255428

>  <r_j_Polarizability> (1)
111.88988976145

>  <r_j_QM_Dipole_(debye)> (1)
0.102526827322949

>  <r_j_QM_Dipole_X_(debye)> (1)
0.0593058692381033

>  <r_j_QM_Dipole_Y_(debye)> (1)
0.0836335098231505

>  <r_j_QM_Dipole_Z_(debye)> (1)
-1.51487215022888e-05

>  <r_j_Lowest_Frequency_(cm-1)> (1)
78.791632464706

>  <r_j_Highest_Frequency_(cm-1)> (1)
3054.02457108748

>  <r_j_2nd_Lowest_Frequency_(cm-1)> (1)
86.5942718256056

>  <i_j_Num_Negative_Frequencies> (1)
0

>  <r_j_Zero_Point_Energy_(kcal/mol)> (1)
171.564768953006

>  <r_j_Entropy_(cal/mol/K)_298.15K_1.00E+00atm> (1)
101.909197631196

>  <r_j_Enthalpy_(kcal/mol)_298.15K_1.00E+00atm> (1)
7.74648438136985

>  <r_j_Free_Energy_(kcal/mol)_298.15K_1.00E+00atm> (1)
-22.6377428923711

>  <r_j_Internal_Energy_(kcal/mol)_298.15K_1.00E+00atm> (1)
7.15399879254257

>  <r_j_Heat_Capacity_(cal/mol/K)_298.15K_1.00E+00atm> (1)
43.8367132109884

>  <r_j_ln(Q)_298.15K_1.00E+00atm> (1)
38.2080903219582

>  <r_j_Total_Internal_Energy_(au)_298.15K_1.00E+00atm> (1)
-354.887134058959

>  <r_j_Total_Enthalpy_(au)_298.15K_1.00E+00atm> (1)
-354.886189873066

>  <r_j_Total_Free_Energy_(au)_298.15K_1.00E+00atm> (1)
-354.934610221645

>  <r_lp_tautomer_probability> (1)
1

>  <r_epik_Ionization_Penalty> (1)
  0.0000

>  <r_epik_Ionization_Penalty_Charging> (1)
  0.0000

>  <r_epik_Ionization_Penalty_Neutral> (1)
  0.0000

>  <r_epik_State_Penalty> (1)
  0.0000

>  <r_epik_Charging_Adjusted_Penalty> (1)
0

>  <i_epik_Tot_Q> (1)
0

>  <i_epik_Tot_abs_Q> (1)
0

>  <s_lp_Force_Field> (1)
S-OPLS

>  <r_lp_Energy> (1)
4.194907

>  <b_lp_Chiralities_Consistent> (1)
1

$$$$
