14062_2,2-dimethylheptane
                    3D
 Schrodinger Suite 2021-3.
 29 28  0  0  1  0            999 V2000
   -2.2506    1.4354    0.0005 C   0  0  0  0  0  0
   -0.7193    1.4638   -0.0007 C   0  0  0  0  0  0
   -0.0931    0.0645    0.0000 C   0  0  0  0  0  0
    1.4406    0.0842   -0.0009 C   0  0  0  0  0  0
    2.0466   -1.3251   -0.0006 C   0  0  0  0  0  0
    3.5933   -1.4281   -0.0002 C   0  0  0  0  0  0
    4.1874   -0.7654   -1.2573 C   0  0  0  0  0  0
    3.9704   -2.9223   -0.0005 C   0  0  0  0  0  0
    4.1865   -0.7660    1.2578 C   0  0  0  0  0  0
   -2.6730    2.4457   -0.0001 H   0  0  0  0  0  0
   -2.6341    0.9138    0.8851 H   0  0  0  0  0  0
   -2.6355    0.9121   -0.8824 H   0  0  0  0  0  0
   -0.3620    2.0188   -0.8789 H   0  0  0  0  0  0
   -0.3606    2.0204    0.8760 H   0  0  0  0  0  0
   -0.4505   -0.4924    0.8783 H   0  0  0  0  0  0
   -0.4515   -0.4938   -0.8770 H   0  0  0  0  0  0
    1.7873    0.6438   -0.8792 H   0  0  0  0  0  0
    1.7883    0.6446    0.8765 H   0  0  0  0  0  0
    1.6669   -1.8686    0.8767 H   0  0  0  0  0  0
    1.6672   -1.8687   -0.8780 H   0  0  0  0  0  0
    5.2734   -0.9078   -1.2931 H   0  0  0  0  0  0
    3.9970    0.3122   -1.2774 H   0  0  0  0  0  0
    3.7626   -1.1999   -2.1696 H   0  0  0  0  0  0
    3.5720   -3.4302   -0.8863 H   0  0  0  0  0  0
    3.5712   -3.4308    0.8847 H   0  0  0  0  0  0
    5.0583   -3.0539    0.0000 H   0  0  0  0  0  0
    5.2724   -0.9087    1.2945 H   0  0  0  0  0  0
    3.7608   -1.2007    2.1695 H   0  0  0  0  0  0
    3.9963    0.3117    1.2781 H   0  0  0  0  0  0
  1  2  1  0  0  0
  1 10  1  0  0  0
  1 11  1  0  0  0
  1 12  1  0  0  0
  2  3  1  0  0  0
  2 13  1  0  0  0
  2 14  1  0  0  0
  3  4  1  0  0  0
  3 15  1  0  0  0
  3 16  1  0  0  0
  4  5  1  0  0  0
  4 17  1  0  0  0
  4 18  1  0  0  0
  5  6  1  0  0  0
  5 19  1  0  0  0
  5 20  1  0  0  0
  6  7  1  0  0  0
  6  8  1  0  0  0
  6  9  1  0  0  0
  7 21  1  0  0  0
  7 22  1  0  0  0
  7 23  1  0  0  0
  8 24  1  0  0  0
  8 25  1  0  0  0
  8 26  1  0  0  0
  9 27  1  0  0  0
  9 28  1  0  0  0
  9 29  1  0  0  0
M  END
>  <i_m_Spin_multiplicity> (1)
1

>  <s_j_Task> (1)
Single Point

>  <s_j_QM_Method> (1)
DFT(b3lyp-d3)

>  <s_j_QM_Basis> (1)
cc-pvtz(-f)

>  <i_j_Number_of_canonical_orbitals> (1)
384

>  <i_j_Geometry_convergence_category> (1)
3

>  <r_j_Gas_Phase_Energy> (1)
-355.172150734033

>  <r_j_Final_Energy> (1)
-355.172150734033

>  <r_j_HOMO> (1)
-0.303615674607564

>  <r_j_LUMO> (1)
0.0199325572271181

>  <r_j_Polarizability> (1)
111.656492016371

>  <r_j_QM_Dipole_(debye)> (1)
0.0759273089334171

>  <r_j_QM_Dipole_X_(debye)> (1)
0.00548031256820194

>  <r_j_QM_Dipole_Y_(debye)> (1)
0.0757267203106989

>  <r_j_QM_Dipole_Z_(debye)> (1)
0.000621487739663398

>  <r_j_Lowest_Frequency_(cm-1)> (1)
81.6426397521285

>  <r_j_Highest_Frequency_(cm-1)> (1)
3052.10685243977

>  <r_j_2nd_Lowest_Frequency_(cm-1)> (1)
113.97765887338

>  <i_j_Num_Negative_Frequencies> (1)
0

>  <r_j_Zero_Point_Energy_(kcal/mol)> (1)
171.439305212125

>  <r_j_Entropy_(cal/mol/K)_298.15K_1.00E+00atm> (1)
101.339869639607

>  <r_j_Enthalpy_(kcal/mol)_298.15K_1.00E+00atm> (1)
7.73892223329881

>  <r_j_Free_Energy_(kcal/mol)_298.15K_1.00E+00atm> (1)
-22.4755598997502

>  <r_j_Internal_Energy_(kcal/mol)_298.15K_1.00E+00atm> (1)
7.14643664447154

>  <r_j_Heat_Capacity_(cal/mol/K)_298.15K_1.00E+00atm> (1)
44.1937432824645

>  <r_j_ln(Q)_298.15K_1.00E+00atm> (1)
37.9343570942152

>  <r_j_Total_Internal_Energy_(au)_298.15K_1.00E+00atm> (1)
-354.887556237225

>  <r_j_Total_Enthalpy_(au)_298.15K_1.00E+00atm> (1)
-354.886612051333

>  <r_j_Total_Free_Energy_(au)_298.15K_1.00E+00atm> (1)
-354.93476189381

>  <r_lp_tautomer_probability> (1)
1

>  <r_epik_Ionization_Penalty> (1)
  0.0000

>  <r_epik_Ionization_Penalty_Charging> (1)
  0.0000

>  <r_epik_Ionization_Penalty_Neutral> (1)
  0.0000

>  <r_epik_State_Penalty> (1)
  0.0000

>  <r_epik_Charging_Adjusted_Penalty> (1)
0

>  <i_epik_Tot_Q> (1)
0

>  <i_epik_Tot_abs_Q> (1)
0

>  <s_lp_Force_Field> (1)
S-OPLS

>  <r_lp_Energy> (1)
5.545105

>  <b_lp_Chiralities_Consistent> (1)
1

$$$$
