14070_2,7-dimethyloctane
                    3D
 Schrodinger Suite 2021-3.
 32 31  0  0  1  0            999 V2000
   -2.8771    0.7643   -1.1409 C   0  0  0  0  0  0
   -2.1449    1.4808    0.0032 C   0  0  0  0  0  0
   -2.6095    2.9408    0.1053 C   0  0  0  0  0  0
   -0.6134    1.4136   -0.1473 C   0  0  0  0  0  0
   -0.0169    0.0009   -0.1287 C   0  0  0  0  0  0
    1.5168   -0.0014   -0.1285 C   0  0  0  0  0  0
    2.1135   -1.4140   -0.1466 C   0  0  0  0  0  0
    3.6450   -1.4807    0.0035 C   0  0  0  0  0  0
    4.3765   -0.7636   -1.1406 C   0  0  0  0  0  0
    4.1101   -2.9406    0.1050 C   0  0  0  0  0  0
   -2.6095    1.2088   -2.1079 H   0  0  0  0  0  0
   -3.9631    0.8494   -1.0257 H   0  0  0  0  0  0
   -2.6319   -0.3011   -1.1836 H   0  0  0  0  0  0
   -2.4087    0.9744    0.9443 H   0  0  0  0  0  0
   -2.3686    3.4891   -0.8141 H   0  0  0  0  0  0
   -2.1222    3.4591    0.9384 H   0  0  0  0  0  0
   -3.6926    3.0054    0.2555 H   0  0  0  0  0  0
   -0.3251    1.9182   -1.0818 H   0  0  0  0  0  0
   -0.1571    1.9985    0.6639 H   0  0  0  0  0  0
   -0.3809   -0.5363    0.7591 H   0  0  0  0  0  0
   -0.3730   -0.5696   -0.9962 H   0  0  0  0  0  0
    1.8731    0.5688   -0.9961 H   0  0  0  0  0  0
    1.8806    0.5361    0.7592 H   0  0  0  0  0  0
    1.6575   -1.9987    0.6650 H   0  0  0  0  0  0
    1.8251   -1.9191   -1.0808 H   0  0  0  0  0  0
    3.9088   -0.9745    0.9447 H   0  0  0  0  0  0
    4.1091   -1.2082   -2.1076 H   0  0  0  0  0  0
    5.4626   -0.8479   -1.0256 H   0  0  0  0  0  0
    4.1304    0.3016   -1.1832 H   0  0  0  0  0  0
    3.8691   -3.4888   -0.8143 H   0  0  0  0  0  0
    3.6233   -3.4593    0.9382 H   0  0  0  0  0  0
    5.1933   -3.0049    0.2549 H   0  0  0  0  0  0
  1  2  1  0  0  0
  1 11  1  0  0  0
  1 12  1  0  0  0
  1 13  1  0  0  0
  2  3  1  0  0  0
  2  4  1  0  0  0
  2 14  1  0  0  0
  3 15  1  0  0  0
  3 16  1  0  0  0
  3 17  1  0  0  0
  4  5  1  0  0  0
  4 18  1  0  0  0
  4 19  1  0  0  0
  5  6  1  0  0  0
  5 20  1  0  0  0
  5 21  1  0  0  0
  6  7  1  0  0  0
  6 22  1  0  0  0
  6 23  1  0  0  0
  7  8  1  0  0  0
  7 24  1  0  0  0
  7 25  1  0  0  0
  8  9  1  0  0  0
  8 10  1  0  0  0
  8 26  1  0  0  0
  9 27  1  0  0  0
  9 28  1  0  0  0
  9 29  1  0  0  0
 10 30  1  0  0  0
 10 31  1  0  0  0
 10 32  1  0  0  0
M  END
>  <i_m_Spin_multiplicity> (1)
1

>  <s_j_Task> (1)
Single Point

>  <s_j_QM_Method> (1)
DFT(b3lyp-d3)

>  <s_j_QM_Basis> (1)
cc-pvtz(-f)

>  <i_j_Number_of_canonical_orbitals> (1)
425

>  <i_j_Geometry_convergence_category> (1)
3

>  <r_j_Gas_Phase_Energy> (1)
-394.501379460286

>  <r_j_Final_Energy> (1)
-394.501379460286

>  <r_j_HOMO> (1)
-0.296731052379432

>  <r_j_LUMO> (1)
0.0257058055618825

>  <r_j_Polarizability> (1)
124.536636623442

>  <r_j_QM_Dipole_(debye)> (1)
0.163560052242809

>  <r_j_QM_Dipole_X_(debye)> (1)
1.42411092838877e-05

>  <r_j_QM_Dipole_Y_(debye)> (1)
-5.03374876734119e-05

>  <r_j_QM_Dipole_Z_(debye)> (1)
0.163560043876854

>  <r_j_Lowest_Frequency_(cm-1)> (1)
70.1439308567837

>  <r_j_Highest_Frequency_(cm-1)> (1)
3054.0835456465

>  <r_j_2nd_Lowest_Frequency_(cm-1)> (1)
78.8784840070356

>  <i_j_Num_Negative_Frequencies> (1)
0

>  <r_j_Zero_Point_Energy_(kcal/mol)> (1)
189.436696046665

>  <r_j_Entropy_(cal/mol/K)_298.15K_1.00E+00atm> (1)
107.816301111927

>  <r_j_Enthalpy_(kcal/mol)_298.15K_1.00E+00atm> (1)
8.51194010486772

>  <r_j_Free_Energy_(kcal/mol)_298.15K_1.00E+00atm> (1)
-23.6334900716533

>  <r_j_Internal_Energy_(kcal/mol)_298.15K_1.00E+00atm> (1)
7.91945451604044

>  <r_j_Heat_Capacity_(cal/mol/K)_298.15K_1.00E+00atm> (1)
48.5923354345978

>  <r_j_ln(Q)_298.15K_1.00E+00atm> (1)
39.8887171558583

>  <r_j_Total_Internal_Energy_(au)_298.15K_1.00E+00atm> (1)
-394.186872412985

>  <r_j_Total_Enthalpy_(au)_298.15K_1.00E+00atm> (1)
-394.185928227093

>  <r_j_Total_Free_Energy_(au)_298.15K_1.00E+00atm> (1)
-394.237155231168

>  <r_lp_tautomer_probability> (1)
1

>  <r_epik_Ionization_Penalty> (1)
  0.0000

>  <r_epik_Ionization_Penalty_Charging> (1)
  0.0000

>  <r_epik_Ionization_Penalty_Neutral> (1)
  0.0000

>  <r_epik_State_Penalty> (1)
  0.0000

>  <r_epik_Charging_Adjusted_Penalty> (1)
0

>  <i_epik_Tot_Q> (1)
0

>  <i_epik_Tot_abs_Q> (1)
0

>  <s_lp_Force_Field> (1)
S-OPLS

>  <r_lp_Energy> (1)
4.82043

>  <b_lp_Chiralities_Consistent> (1)
1

$$$$
