14109_N-hexylbenzene
                    3D
 Schrodinger Suite 2021-3.
 30 30  0  0  1  0            999 V2000
   -2.1471    1.5311    0.0007 C   0  0  0  0  0  0
   -0.6164    1.4871    0.0006 C   0  0  0  0  0  0
   -0.0568    0.0597   -0.0005 C   0  0  0  0  0  0
    1.4748    0.0081   -0.0003 C   0  0  0  0  0  0
    2.0343   -1.4174   -0.0013 C   0  0  0  0  0  0
    3.5745   -1.4617   -0.0007 C   0  0  0  0  0  0
    4.1073   -2.8762   -0.0002 C   0  0  0  0  0  0
    4.3319   -3.5577    1.2026 C   0  0  0  0  0  0
    4.7682   -4.8824    1.2060 C   0  0  0  0  0  0
    4.9881   -5.5504    0.0007 C   0  0  0  0  0  0
    4.7685   -4.8831   -1.2051 C   0  0  0  0  0  0
    4.3322   -3.5583   -1.2025 C   0  0  0  0  0  0
   -2.5209    2.5602    0.0015 H   0  0  0  0  0  0
   -2.5556    1.0268    0.8840 H   0  0  0  0  0  0
   -2.5556    1.0282   -0.8834 H   0  0  0  0  0  0
   -0.2321    2.0258   -0.8763 H   0  0  0  0  0  0
   -0.2321    2.0245    0.8784 H   0  0  0  0  0  0
   -0.4397   -0.4815    0.8767 H   0  0  0  0  0  0
   -0.4395   -0.4801   -0.8786 H   0  0  0  0  0  0
    1.8573    0.5494   -0.8777 H   0  0  0  0  0  0
    1.8570    0.5482    0.8778 H   0  0  0  0  0  0
    1.6618   -1.9644    0.8752 H   0  0  0  0  0  0
    1.6624   -1.9632   -0.8788 H   0  0  0  0  0  0
    3.9486   -0.9220   -0.8800 H   0  0  0  0  0  0
    3.9479   -0.9217    0.8787 H   0  0  0  0  0  0
    4.1633   -3.0421    2.1453 H   0  0  0  0  0  0
    4.9400   -5.3924    2.1499 H   0  0  0  0  0  0
    5.3304   -6.5812    0.0010 H   0  0  0  0  0  0
    4.9405   -5.3936   -2.1487 H   0  0  0  0  0  0
    4.1638   -3.0433   -2.1456 H   0  0  0  0  0  0
  1  2  1  0  0  0
  1 13  1  0  0  0
  1 14  1  0  0  0
  1 15  1  0  0  0
  2  3  1  0  0  0
  2 16  1  0  0  0
  2 17  1  0  0  0
  3  4  1  0  0  0
  3 18  1  0  0  0
  3 19  1  0  0  0
  4  5  1  0  0  0
  4 20  1  0  0  0
  4 21  1  0  0  0
  5  6  1  0  0  0
  5 22  1  0  0  0
  5 23  1  0  0  0
  6  7  1  0  0  0
  6 24  1  0  0  0
  6 25  1  0  0  0
  7 12  1  0  0  0
  7  8  2  0  0  0
  8  9  1  0  0  0
  8 26  1  0  0  0
  9 10  2  0  0  0
  9 27  1  0  0  0
 10 11  1  0  0  0
 10 28  1  0  0  0
 11 12  2  0  0  0
 11 29  1  0  0  0
 12 30  1  0  0  0
M  END
>  <i_m_Spin_multiplicity> (1)
1

>  <s_j_Task> (1)
Single Point

>  <s_j_QM_Method> (1)
DFT(b3lyp-d3)

>  <s_j_QM_Basis> (1)
cc-pvtz(-f)

>  <i_j_Number_of_canonical_orbitals> (1)
430

>  <i_j_Geometry_convergence_category> (1)
3

>  <r_j_Gas_Phase_Energy> (1)
-468.310132706049

>  <r_j_Final_Energy> (1)
-468.310132706049

>  <r_j_HOMO> (1)
-0.263886481855568

>  <r_j_LUMO> (1)
-0.0322327037701159

>  <r_j_Polarizability> (1)
140.186128596569

>  <r_j_QM_Dipole_(debye)> (1)
0.448154595827571

>  <r_j_QM_Dipole_X_(debye)> (1)
-0.250678941697688

>  <r_j_QM_Dipole_Y_(debye)> (1)
0.371487006522604

>  <r_j_QM_Dipole_Z_(debye)> (1)
-0.000118049041197358

>  <r_j_Lowest_Frequency_(cm-1)> (1)
65.2599997053472

>  <r_j_Highest_Frequency_(cm-1)> (1)
3145.14214085442

>  <r_j_2nd_Lowest_Frequency_(cm-1)> (1)
69.4627023761586

>  <i_j_Num_Negative_Frequencies> (1)
0

>  <r_j_Zero_Point_Energy_(kcal/mol)> (1)
169.438307792958

>  <r_j_Entropy_(cal/mol/K)_298.15K_1.00E+00atm> (1)
106.770887147214

>  <r_j_Enthalpy_(kcal/mol)_298.15K_1.00E+00atm> (1)
8.07090779476427

>  <r_j_Free_Energy_(kcal/mol)_298.15K_1.00E+00atm> (1)
-23.7628322081775

>  <r_j_Internal_Energy_(kcal/mol)_298.15K_1.00E+00atm> (1)
7.478422205937

>  <r_j_Heat_Capacity_(cal/mol/K)_298.15K_1.00E+00atm> (1)
46.4890124254418

>  <r_j_ln(Q)_298.15K_1.00E+00atm> (1)
40.1070214301956

>  <r_j_Total_Internal_Energy_(au)_298.15K_1.00E+00atm> (1)
-468.028197948955

>  <r_j_Total_Enthalpy_(au)_298.15K_1.00E+00atm> (1)
-468.027253763062

>  <r_j_Total_Free_Energy_(au)_298.15K_1.00E+00atm> (1)
-468.077984057225

>  <r_lp_tautomer_probability> (1)
1

>  <r_epik_Ionization_Penalty> (1)
  0.0000

>  <r_epik_Ionization_Penalty_Charging> (1)
  0.0000

>  <r_epik_Ionization_Penalty_Neutral> (1)
  0.0000

>  <r_epik_State_Penalty> (1)
  0.0000

>  <r_epik_Charging_Adjusted_Penalty> (1)
0

>  <i_epik_Tot_Q> (1)
0

>  <i_epik_Tot_abs_Q> (1)
0

>  <s_lp_Force_Field> (1)
S-OPLS

>  <r_lp_Energy> (1)
11.0192

>  <b_lp_Chiralities_Consistent> (1)
1

$$$$
