14104_2-Isopropyl-5-methylanisole
                    3D
 Schrodinger Suite 2021-3.
 28 28  0  0  1  0            999 V2000
   -4.3801   -0.0444   -0.0003 C   0  0  0  0  0  0
   -2.8687   -0.0323    0.0001 C   0  0  0  0  0  0
   -2.1615    1.1744   -0.0004 C   0  0  0  0  0  0
   -0.7611    1.1893    0.0000 C   0  0  0  0  0  0
   -0.0257   -0.0121    0.0010 C   0  0  0  0  0  0
   -0.7526   -1.2051    0.0014 C   0  0  0  0  0  0
   -2.1459   -1.2280    0.0010 C   0  0  0  0  0  0
    1.4976   -0.0156    0.0010 C   0  0  0  0  0  0
    2.0565   -0.6820   -1.2692 C   0  0  0  0  0  0
    2.0571   -0.6864    1.2686 C   0  0  0  0  0  0
   -0.0250    2.3469   -0.0007 O   0  0  0  0  0  0
   -0.7061    3.5892   -0.0017 C   0  0  0  0  0  0
   -4.7938    0.9682   -0.0010 H   0  0  0  0  0  0
   -4.7721   -0.5650    0.8811 H   0  0  0  0  0  0
   -4.7716   -0.5660   -0.8813 H   0  0  0  0  0  0
   -2.7176    2.1048   -0.0011 H   0  0  0  0  0  0
   -0.2095   -2.1466    0.0019 H   0  0  0  0  0  0
   -2.6730   -2.1785    0.0013 H   0  0  0  0  0  0
    1.8299    1.0256    0.0027 H   0  0  0  0  0  0
    1.6827   -0.1865   -2.1704 H   0  0  0  0  0  0
    1.7680   -1.7377   -1.3245 H   0  0  0  0  0  0
    3.1513   -0.6358   -1.2813 H   0  0  0  0  0  0
    1.6833   -0.1943    2.1717 H   0  0  0  0  0  0
    3.1519   -0.6394    1.2805 H   0  0  0  0  0  0
    1.7695   -1.7424    1.3202 H   0  0  0  0  0  0
    0.0695    4.3573   -0.0022 H   0  0  0  0  0  0
   -1.3330    3.7120    0.8917 H   0  0  0  0  0  0
   -1.3328    3.7107   -0.8954 H   0  0  0  0  0  0
  1  2  1  0  0  0
  1 13  1  0  0  0
  1 14  1  0  0  0
  1 15  1  0  0  0
  2  7  1  0  0  0
  2  3  2  0  0  0
  3  4  1  0  0  0
  3 16  1  0  0  0
  4  5  2  0  0  0
  4 11  1  0  0  0
  5  6  1  0  0  0
  5  8  1  0  0  0
  6  7  2  0  0  0
  6 17  1  0  0  0
  7 18  1  0  0  0
  8  9  1  0  0  0
  8 10  1  0  0  0
  8 19  1  0  0  0
  9 20  1  0  0  0
  9 21  1  0  0  0
  9 22  1  0  0  0
 10 23  1  0  0  0
 10 24  1  0  0  0
 10 25  1  0  0  0
 11 12  1  0  0  0
 12 26  1  0  0  0
 12 27  1  0  0  0
 12 28  1  0  0  0
M  END
>  <i_m_Spin_multiplicity> (1)
1

>  <s_j_Task> (1)
Single Point

>  <s_j_QM_Method> (1)
DFT(b3lyp-d3)

>  <s_j_QM_Basis> (1)
cc-pvtz(-f)

>  <i_j_Number_of_canonical_orbitals> (1)
414

>  <i_j_Geometry_convergence_category> (1)
0

>  <r_j_Gas_Phase_Energy> (1)
-504.220094229088

>  <r_j_Final_Energy> (1)
-504.220094229088

>  <r_j_HOMO> (1)
-0.213167111295659

>  <r_j_LUMO> (1)
-0.00423850574148343

>  <r_j_Polarizability> (1)
134.755422924577

>  <r_j_QM_Dipole_(debye)> (1)
1.42714513125965

>  <r_j_QM_Dipole_X_(debye)> (1)
-0.823041821533234

>  <r_j_QM_Dipole_Y_(debye)> (1)
1.1659090396662

>  <r_j_QM_Dipole_Z_(debye)> (1)
-0.00122348274212345

>  <r_j_Lowest_Frequency_(cm-1)> (1)
62.3286990970737

>  <r_j_Highest_Frequency_(cm-1)> (1)
3153.33349958717

>  <r_j_2nd_Lowest_Frequency_(cm-1)> (1)
99.7088108052869

>  <i_j_Num_Negative_Frequencies> (1)
0

>  <r_j_Zero_Point_Energy_(kcal/mol)> (1)
153.342227820755

>  <r_j_Entropy_(cal/mol/K)_298.15K_1.00E+00atm> (1)
106.249008564785

>  <r_j_Enthalpy_(kcal/mol)_298.15K_1.00E+00atm> (1)
8.27086749702558

>  <r_j_Free_Energy_(kcal/mol)_298.15K_1.00E+00atm> (1)
-23.4072744065652

>  <r_j_Internal_Energy_(kcal/mol)_298.15K_1.00E+00atm> (1)
7.67838190819831

>  <r_j_Heat_Capacity_(cal/mol/K)_298.15K_1.00E+00atm> (1)
47.7399754584442

>  <r_j_ln(Q)_298.15K_1.00E+00atm> (1)
39.5069092784112

>  <r_j_Total_Internal_Energy_(au)_298.15K_1.00E+00atm> (1)
-503.963491552273

>  <r_j_Total_Enthalpy_(au)_298.15K_1.00E+00atm> (1)
-503.96254736638

>  <r_j_Total_Free_Energy_(au)_298.15K_1.00E+00atm> (1)
-504.013029699187

>  <r_lp_tautomer_probability> (1)
1

>  <r_epik_Ionization_Penalty> (1)
  0.0000

>  <r_epik_Ionization_Penalty_Charging> (1)
  0.0000

>  <r_epik_Ionization_Penalty_Neutral> (1)
  0.0000

>  <r_epik_State_Penalty> (1)
  0.0000

>  <r_epik_Charging_Adjusted_Penalty> (1)
0

>  <i_epik_Tot_Q> (1)
0

>  <i_epik_Tot_abs_Q> (1)
0

>  <s_lp_Force_Field> (1)
S-OPLS

>  <r_lp_Energy> (1)
14.616

>  <b_lp_Chiralities_Consistent> (1)
1

$$$$
