14215_Pebulate
                    3D
 Schrodinger Suite 2021-3.
 34 33  0  0  1  0            999 V2000
   -2.7727    0.7217   -1.1469 C   0  0  0  0  0  0
   -2.1323    1.3387    0.1033 C   0  0  0  0  0  0
   -0.5979    1.3928    0.0562 C   0  0  0  0  0  0
    0.0617    0.0066    0.0474 C   0  0  0  0  0  0
    1.5224    0.0685    0.0738 N   0  0  0  0  0  0
    2.1915    0.1228    1.3807 C   0  0  0  0  0  0
    2.5893   -1.2647    1.8862 C   0  0  0  0  0  0
    2.3171    0.0546   -1.0340 C   0  0  0  0  0  0
    3.5391    0.0609   -0.9928 O   0  0  0  0  0  0
    1.4335    0.0493   -2.6330 S   0  0  0  0  0  0
    2.9118    0.0122   -3.7251 C   0  0  0  0  0  0
    2.4834    0.0714   -5.1928 C   0  0  0  0  0  0
    3.6973    0.0517   -6.1290 C   0  0  0  0  0  0
   -3.8648    0.7787   -1.0985 H   0  0  0  0  0  0
   -2.5065   -0.3337   -1.2670 H   0  0  0  0  0  0
   -2.4483    1.2474   -2.0518 H   0  0  0  0  0  0
   -2.5126    2.3589    0.2350 H   0  0  0  0  0  0
   -2.4502    0.7800    0.9949 H   0  0  0  0  0  0
   -0.2694    1.9388   -0.8365 H   0  0  0  0  0  0
   -0.2228    1.9520    0.9227 H   0  0  0  0  0  0
   -0.2614   -0.5699    0.9231 H   0  0  0  0  0  0
   -0.2538   -0.5689   -0.8266 H   0  0  0  0  0  0
    3.0766    0.7547    1.2815 H   0  0  0  0  0  0
    1.5062    0.6137    2.0796 H   0  0  0  0  0  0
    3.0640   -1.1954    2.8706 H   0  0  0  0  0  0
    3.2983   -1.7192    1.1894 H   0  0  0  0  0  0
    1.7158   -1.9197    1.9732 H   0  0  0  0  0  0
    3.5468    0.8593   -3.4553 H   0  0  0  0  0  0
    3.4730   -0.8999   -3.5069 H   0  0  0  0  0  0
    1.8257   -0.7761   -5.4218 H   0  0  0  0  0  0
    1.8946    0.9800   -5.3689 H   0  0  0  0  0  0
    3.3856    0.0938   -7.1775 H   0  0  0  0  0  0
    4.2885   -0.8602   -5.9911 H   0  0  0  0  0  0
    4.3556    0.9068   -5.9400 H   0  0  0  0  0  0
  1  2  1  0  0  0
  1 14  1  0  0  0
  1 15  1  0  0  0
  1 16  1  0  0  0
  2  3  1  0  0  0
  2 17  1  0  0  0
  2 18  1  0  0  0
  3  4  1  0  0  0
  3 19  1  0  0  0
  3 20  1  0  0  0
  4  5  1  0  0  0
  4 21  1  0  0  0
  4 22  1  0  0  0
  5  6  1  0  0  0
  5  8  1  0  0  0
  6  7  1  0  0  0
  6 23  1  0  0  0
  6 24  1  0  0  0
  7 25  1  0  0  0
  7 26  1  0  0  0
  7 27  1  0  0  0
  8  9  2  0  0  0
  8 10  1  0  0  0
 10 11  1  0  0  0
 11 12  1  0  0  0
 11 28  1  0  0  0
 11 29  1  0  0  0
 12 13  1  0  0  0
 12 30  1  0  0  0
 12 31  1  0  0  0
 13 32  1  0  0  0
 13 33  1  0  0  0
 13 34  1  0  0  0
M  END
>  <i_m_Spin_multiplicity> (1)
1

>  <s_j_Task> (1)
Single Point

>  <s_j_QM_Method> (1)
DFT(b3lyp-d3)

>  <s_j_QM_Basis> (1)
cc-pvtz(-f)

>  <i_j_Number_of_canonical_orbitals> (1)
491

>  <i_j_Geometry_convergence_category> (1)
1

>  <r_j_Gas_Phase_Energy> (1)
-922.152646791183

>  <r_j_Final_Energy> (1)
-922.152646791183

>  <r_j_HOMO> (1)
-0.225262668664564

>  <r_j_LUMO> (1)
0.0203801303493674

>  <r_j_Polarizability> (1)
156.225380818326

>  <r_j_QM_Dipole_(debye)> (1)
2.18575559967429

>  <r_j_QM_Dipole_X_(debye)> (1)
-2.047292856363

>  <r_j_QM_Dipole_Y_(debye)> (1)
0.10412454880861

>  <r_j_QM_Dipole_Z_(debye)> (1)
0.7584705532372

>  <r_j_Lowest_Frequency_(cm-1)> (1)
46.6022350130367

>  <r_j_Highest_Frequency_(cm-1)> (1)
3079.31193952214

>  <r_j_2nd_Lowest_Frequency_(cm-1)> (1)
57.1559311078924

>  <i_j_Num_Negative_Frequencies> (1)
0

>  <r_j_Zero_Point_Energy_(kcal/mol)> (1)
189.8496950055

>  <r_j_Entropy_(cal/mol/K)_298.15K_1.00E+00atm> (1)
125.099223550603

>  <r_j_Enthalpy_(kcal/mol)_298.15K_1.00E+00atm> (1)
10.5867874054976

>  <r_j_Free_Energy_(kcal/mol)_298.15K_1.00E+00atm> (1)
-26.7115460961148

>  <r_j_Internal_Energy_(kcal/mol)_298.15K_1.00E+00atm> (1)
9.99430181667029

>  <r_j_Heat_Capacity_(cal/mol/K)_298.15K_1.00E+00atm> (1)
59.0015623595491

>  <r_j_ln(Q)_298.15K_1.00E+00atm> (1)
45.0838747807955

>  <r_j_Total_Internal_Energy_(au)_298.15K_1.00E+00atm> (1)
-921.834175108481

>  <r_j_Total_Enthalpy_(au)_298.15K_1.00E+00atm> (1)
-921.833230922589

>  <r_j_Total_Free_Energy_(au)_298.15K_1.00E+00atm> (1)
-921.892669600863

>  <r_lp_tautomer_probability> (1)
1

>  <r_epik_Ionization_Penalty> (1)
  0.0000

>  <r_epik_Ionization_Penalty_Charging> (1)
  0.0000

>  <r_epik_Ionization_Penalty_Neutral> (1)
  0.0000

>  <r_epik_State_Penalty> (1)
  0.0000

>  <r_epik_Charging_Adjusted_Penalty> (1)
0

>  <i_epik_Tot_Q> (1)
0

>  <i_epik_Tot_abs_Q> (1)
0

>  <s_lp_Force_Field> (1)
S-OPLS

>  <r_lp_Energy> (1)
10.868456

>  <b_lp_Chiralities_Consistent> (1)
1

$$$$
