14256_Dodecanamide
                    3D
 Schrodinger Suite 2021-3.
 39 38  0  0  1  0            999 V2000
   -2.9829    5.2150   -1.3153 C   0  0  0  0  0  0
   -2.3972    3.8022   -1.2295 C   0  0  0  0  0  0
   -2.4802    3.2098    0.1841 C   0  0  0  0  0  0
   -1.9849    1.7598    0.2976 C   0  0  0  0  0  0
   -0.4888    1.5747    0.0124 C   0  0  0  0  0  0
   -0.0140    0.1285    0.1929 C   0  0  0  0  0  0
    1.4773   -0.0618   -0.1053 C   0  0  0  0  0  0
    1.9525   -1.5099    0.0554 C   0  0  0  0  0  0
    3.4421   -1.6974   -0.2526 C   0  0  0  0  0  0
    3.9092   -3.1479   -0.1005 C   0  0  0  0  0  0
    5.3936   -3.3275   -0.4157 C   0  0  0  0  0  0
    5.8574   -4.7762   -0.2616 C   0  0  0  0  0  0
    5.1174   -5.6840    0.0887 O   0  0  0  0  0  0
    7.1794   -4.9867   -0.5476 N   0  0  0  0  0  0
   -2.9124    5.6197   -2.3303 H   0  0  0  0  0  0
   -2.4531    5.9018   -0.6451 H   0  0  0  0  0  0
   -4.0399    5.2227   -1.0251 H   0  0  0  0  0  0
   -2.9272    3.1398   -1.9280 H   0  0  0  0  0  0
   -1.3528    3.8239   -1.5641 H   0  0  0  0  0  0
   -1.9083    3.8452    0.8759 H   0  0  0  0  0  0
   -3.5240    3.2569    0.5237 H   0  0  0  0  0  0
   -2.1999    1.3877    1.3084 H   0  0  0  0  0  0
   -2.5644    1.1248   -0.3880 H   0  0  0  0  0  0
   -0.2601    1.8975   -1.0116 H   0  0  0  0  0  0
    0.0902    2.2345    0.6750 H   0  0  0  0  0  0
   -0.2255   -0.2007    1.2203 H   0  0  0  0  0  0
   -0.6018   -0.5305   -0.4621 H   0  0  0  0  0  0
    1.6880    0.2772   -1.1299 H   0  0  0  0  0  0
    2.0664    0.5905    0.5553 H   0  0  0  0  0  0
    1.7478   -1.8504    1.0802 H   0  0  0  0  0  0
    1.3617   -2.1621   -0.6031 H   0  0  0  0  0  0
    3.6462   -1.3504   -1.2762 H   0  0  0  0  0  0
    4.0338   -1.0481    0.4091 H   0  0  0  0  0  0
    3.7165   -3.5031    0.9182 H   0  0  0  0  0  0
    3.3249   -3.8037   -0.7561 H   0  0  0  0  0  0
    5.6123   -2.9973   -1.4410 H   0  0  0  0  0  0
    6.0063   -2.6933    0.2404 H   0  0  0  0  0  0
    7.7973   -4.2464   -0.8372 H   0  0  0  0  0  0
    7.5413   -5.9238   -0.4624 H   0  0  0  0  0  0
  1  2  1  0  0  0
  1 15  1  0  0  0
  1 16  1  0  0  0
  1 17  1  0  0  0
  2  3  1  0  0  0
  2 18  1  0  0  0
  2 19  1  0  0  0
  3  4  1  0  0  0
  3 20  1  0  0  0
  3 21  1  0  0  0
  4  5  1  0  0  0
  4 22  1  0  0  0
  4 23  1  0  0  0
  5  6  1  0  0  0
  5 24  1  0  0  0
  5 25  1  0  0  0
  6  7  1  0  0  0
  6 26  1  0  0  0
  6 27  1  0  0  0
  7  8  1  0  0  0
  7 28  1  0  0  0
  7 29  1  0  0  0
  8  9  1  0  0  0
  8 30  1  0  0  0
  8 31  1  0  0  0
  9 10  1  0  0  0
  9 32  1  0  0  0
  9 33  1  0  0  0
 10 11  1  0  0  0
 10 34  1  0  0  0
 10 35  1  0  0  0
 11 12  1  0  0  0
 11 36  1  0  0  0
 11 37  1  0  0  0
 12 13  2  0  0  0
 12 14  1  0  0  0
 14 38  1  0  0  0
 14 39  1  0  0  0
M  END
>  <i_m_Spin_multiplicity> (1)
1

>  <s_j_Task> (1)
Single Point

>  <s_j_QM_Method> (1)
DFT(b3lyp-d3)

>  <s_j_QM_Basis> (1)
cc-pvtz(-f)

>  <i_j_Number_of_canonical_orbitals> (1)
543

>  <i_j_Geometry_convergence_category> (1)
0

>  <r_j_Gas_Phase_Energy> (1)
-602.593932413173

>  <r_j_Final_Energy> (1)
-602.593932413173

>  <r_j_HOMO> (1)
-0.2793115640707

>  <r_j_LUMO> (1)
-0.0017263970414569

>  <r_j_Polarizability> (1)
158.559451906026

>  <r_j_QM_Dipole_(debye)> (1)
3.53352108805652

>  <r_j_QM_Dipole_X_(debye)> (1)
2.67318968194556

>  <r_j_QM_Dipole_Y_(debye)> (1)
2.05803456346492

>  <r_j_QM_Dipole_Z_(debye)> (1)
-1.05086723217715

>  <r_j_Lowest_Frequency_(cm-1)> (1)
39.8991697069331

>  <r_j_Highest_Frequency_(cm-1)> (1)
3680.40979589374

>  <r_j_2nd_Lowest_Frequency_(cm-1)> (1)
51.7791645430664

>  <i_j_Num_Negative_Frequencies> (1)
0

>  <r_j_Zero_Point_Energy_(kcal/mol)> (1)
224.728279937165

>  <r_j_Entropy_(cal/mol/K)_298.15K_1.00E+00atm> (1)
130.589426973555

>  <r_j_Enthalpy_(kcal/mol)_298.15K_1.00E+00atm> (1)
11.3225465276279

>  <r_j_Free_Energy_(kcal/mol)_298.15K_1.00E+00atm> (1)
-27.6126911245376

>  <r_j_Internal_Energy_(kcal/mol)_298.15K_1.00E+00atm> (1)
10.7300609388007

>  <r_j_Heat_Capacity_(cal/mol/K)_298.15K_1.00E+00atm> (1)
63.6722823826499

>  <r_j_ln(Q)_298.15K_1.00E+00atm> (1)
46.6048316536985

>  <r_j_Total_Internal_Energy_(au)_298.15K_1.00E+00atm> (1)
-602.218705660219

>  <r_j_Total_Enthalpy_(au)_298.15K_1.00E+00atm> (1)
-602.217761474327

>  <r_j_Total_Free_Energy_(au)_298.15K_1.00E+00atm> (1)
-602.279808725426

>  <r_lp_tautomer_probability> (1)
1

>  <r_epik_Ionization_Penalty> (1)
  0.0000

>  <r_epik_Ionization_Penalty_Charging> (1)
  0.0000

>  <r_epik_Ionization_Penalty_Neutral> (1)
  0.0000

>  <r_epik_State_Penalty> (1)
  0.0000

>  <r_epik_Charging_Adjusted_Penalty> (1)
0

>  <i_epik_Tot_Q> (1)
0

>  <i_epik_Tot_abs_Q> (1)
0

>  <s_lp_Force_Field> (1)
S-OPLS

>  <r_lp_Energy> (1)
1.895323

>  <b_lp_Chiralities_Consistent> (1)
1

$$$$
