14263_3-methylcyclopentene
                    3D
 Schrodinger Suite 2021-3.
 16 16  0  0  1  0            999 V2000
   -0.0394    0.0503    0.0329 C   0  0  0  0  0  0
    1.4984   -0.0130   -0.0047 C   0  0  0  0  0  0
    2.0539   -1.4670   -0.0097 C   0  0  0  0  0  0
    2.3873   -1.7875   -1.4911 C   0  0  0  0  0  0
    2.5035   -0.4149   -2.1141 C   0  0  0  0  0  0
    2.0421    0.5416   -1.3060 C   0  0  0  0  0  0
   -0.3980    1.0809   -0.0644 H   0  0  0  0  0  0
   -0.4269   -0.3545    0.9743 H   0  0  0  0  0  0
   -0.4683   -0.5304   -0.7913 H   0  0  0  0  0  0
    1.8825    0.5465    0.8589 H   0  0  0  0  0  0
    2.9741   -1.5052    0.5824 H   0  0  0  0  0  0
    1.3525   -2.1815    0.4325 H   0  0  0  0  0  0
    3.3034   -2.3819   -1.5931 H   0  0  0  0  0  0
    1.5909   -2.3667   -1.9805 H   0  0  0  0  0  0
    2.8857   -0.2548   -3.1182 H   0  0  0  0  0  0
    1.9869    1.5982   -1.5537 H   0  0  0  0  0  0
  1  2  1  0  0  0
  1  7  1  0  0  0
  1  8  1  0  0  0
  1  9  1  0  0  0
  2  6  1  0  0  0
  2  3  1  0  0  0
  2 10  1  0  0  0
  3  4  1  0  0  0
  3 11  1  0  0  0
  3 12  1  0  0  0
  4  5  1  0  0  0
  4 13  1  0  0  0
  4 14  1  0  0  0
  5  6  2  0  0  0
  5 15  1  0  0  0
  6 16  1  0  0  0
M  END
>  <i_m_Spin_multiplicity> (1)
1

>  <s_j_Task> (1)
Single Point

>  <s_j_QM_Method> (1)
DFT(b3lyp-d3)

>  <s_j_QM_Basis> (1)
cc-pvtz(-f)

>  <i_j_Number_of_canonical_orbitals> (1)
227

>  <i_j_Geometry_convergence_category> (1)
0

>  <r_j_Gas_Phase_Energy> (1)
-234.73107791055

>  <r_j_Final_Energy> (1)
-234.73107791055

>  <r_j_HOMO> (1)
-0.238678798421595

>  <r_j_LUMO> (1)
0.0157465176819619

>  <r_j_Polarizability> (1)
67.9420649958015

>  <r_j_QM_Dipole_(debye)> (1)
0.167843253448594

>  <r_j_QM_Dipole_X_(debye)> (1)
-0.0469616508274727

>  <r_j_QM_Dipole_Y_(debye)> (1)
-0.121865623648425

>  <r_j_QM_Dipole_Z_(debye)> (1)
0.105426423882004

>  <r_j_Lowest_Frequency_(cm-1)> (1)
143.90468885221

>  <r_j_Highest_Frequency_(cm-1)> (1)
3146.06119777415

>  <r_j_2nd_Lowest_Frequency_(cm-1)> (1)
288.732081436927

>  <i_j_Num_Negative_Frequencies> (1)
0

>  <r_j_Zero_Point_Energy_(kcal/mol)> (1)
90.4625619454828

>  <r_j_Entropy_(cal/mol/K)_298.15K_1.00E+00atm> (1)
74.9074818972222

>  <r_j_Enthalpy_(kcal/mol)_298.15K_1.00E+00atm> (1)
4.20237096905455

>  <r_j_Free_Energy_(kcal/mol)_298.15K_1.00E+00atm> (1)
-18.1312947586023

>  <r_j_Internal_Energy_(kcal/mol)_298.15K_1.00E+00atm> (1)
3.60988538022728

>  <r_j_Heat_Capacity_(cal/mol/K)_298.15K_1.00E+00atm> (1)
22.1993219576952

>  <r_j_ln(Q)_298.15K_1.00E+00atm> (1)
30.6020856886834

>  <r_j_Total_Internal_Energy_(au)_298.15K_1.00E+00atm> (1)
-234.581163922279

>  <r_j_Total_Enthalpy_(au)_298.15K_1.00E+00atm> (1)
-234.580219736387

>  <r_j_Total_Free_Energy_(au)_298.15K_1.00E+00atm> (1)
-234.615810698429

>  <r_lp_tautomer_probability> (1)
1

>  <r_epik_Ionization_Penalty> (1)
  0.0000

>  <r_epik_Ionization_Penalty_Charging> (1)
  0.0000

>  <r_epik_Ionization_Penalty_Neutral> (1)
  0.0000

>  <r_epik_State_Penalty> (1)
  0.0000

>  <r_epik_Charging_Adjusted_Penalty> (1)
0

>  <i_epik_Tot_Q> (1)
0

>  <i_epik_Tot_abs_Q> (1)
0

>  <s_lp_Force_Field> (1)
S-OPLS

>  <r_lp_Energy> (1)
-3.51614

>  <b_lp_Chiralities_Consistent> (1)
1

$$$$
