14264_1,3-Propane sultone
                    3D
 Schrodinger Suite 2021-3.
 13 13  0  0  1  0            999 V2000
   -0.5373    3.6964   -0.1963 C   0  0  0  0  0  0
    0.7304    4.5277    0.0668 C   0  0  0  0  0  0
    1.8780    3.7824   -0.4022 O   0  0  0  0  0  0
    1.5338    2.1769   -0.6720 S   0  0  2  0  0  0
    1.3984    1.9705   -2.1107 O   0  0  0  0  0  0
    2.4647    1.3754    0.1122 O   0  0  0  0  0  0
   -0.1213    2.2557    0.0855 C   0  0  0  0  0  0
   -0.8467    3.7949   -1.2405 H   0  0  0  0  0  0
   -1.3617    4.0198    0.4437 H   0  0  0  0  0  0
    0.7232    5.4808   -0.4662 H   0  0  0  0  0  0
    0.8646    4.7120    1.1390 H   0  0  0  0  0  0
    0.0030    2.0458    1.1508 H   0  0  0  0  0  0
   -0.7398    1.4920   -0.3864 H   0  0  0  0  0  0
  1  7  1  0  0  0
  1  2  1  0  0  0
  1  8  1  0  0  0
  1  9  1  0  0  0
  2  3  1  0  0  0
  2 10  1  0  0  0
  2 11  1  0  0  0
  3  4  1  0  0  0
  4  5  2  0  0  0
  4  6  2  0  0  0
  4  7  1  0  0  0
  7 12  1  0  0  0
  7 13  1  0  0  0
M  END
>  <i_m_Spin_multiplicity> (1)
1

>  <s_j_Task> (1)
Single Point

>  <s_j_QM_Method> (1)
DFT(b3lyp-d3)

>  <s_j_QM_Basis> (1)
cc-pvtz(-f)

>  <i_j_Number_of_canonical_orbitals> (1)
219

>  <i_j_Geometry_convergence_category> (1)
0

>  <r_j_Gas_Phase_Energy> (1)
-741.904266789501

>  <r_j_Final_Energy> (1)
-741.904266789501

>  <r_j_HOMO> (1)
-0.277745621133012

>  <r_j_LUMO> (1)
0.027597625641047

>  <r_j_Polarizability> (1)
60.0522000015527

>  <r_j_QM_Dipole_(debye)> (1)
5.82318867859395

>  <r_j_QM_Dipole_X_(debye)> (1)
-4.65699326003721

>  <r_j_QM_Dipole_Y_(debye)> (1)
2.63266010699232

>  <r_j_QM_Dipole_Z_(debye)> (1)
2.30022627659193

>  <r_j_Lowest_Frequency_(cm-1)> (1)
78.8037301145191

>  <r_j_Highest_Frequency_(cm-1)> (1)
3113.70470749505

>  <r_j_2nd_Lowest_Frequency_(cm-1)> (1)
234.001772428119

>  <i_j_Num_Negative_Frequencies> (1)
0

>  <r_j_Zero_Point_Energy_(kcal/mol)> (1)
61.7049335054963

>  <r_j_Entropy_(cal/mol/K)_298.15K_1.00E+00atm> (1)
79.739794680154

>  <r_j_Enthalpy_(kcal/mol)_298.15K_1.00E+00atm> (1)
4.57806153671545

>  <r_j_Free_Energy_(kcal/mol)_298.15K_1.00E+00atm> (1)
-19.1963582471725

>  <r_j_Internal_Energy_(kcal/mol)_298.15K_1.00E+00atm> (1)
3.98557594788817

>  <r_j_Heat_Capacity_(cal/mol/K)_298.15K_1.00E+00atm> (1)
23.7133818868028

>  <r_j_ln(Q)_298.15K_1.00E+00atm> (1)
32.39970491969

>  <r_j_Total_Internal_Energy_(au)_298.15K_1.00E+00atm> (1)
-741.799582298519

>  <r_j_Total_Enthalpy_(au)_298.15K_1.00E+00atm> (1)
-741.798638112627

>  <r_j_Total_Free_Energy_(au)_298.15K_1.00E+00atm> (1)
-741.836525062419

>  <r_lp_tautomer_probability> (1)
1

>  <r_epik_Ionization_Penalty> (1)
  0.0000

>  <r_epik_Ionization_Penalty_Charging> (1)
  0.0000

>  <r_epik_Ionization_Penalty_Neutral> (1)
  0.0000

>  <r_epik_State_Penalty> (1)
  0.0000

>  <r_epik_Charging_Adjusted_Penalty> (1)
0

>  <i_epik_Tot_Q> (1)
0

>  <i_epik_Tot_abs_Q> (1)
0

>  <s_lp_Force_Field> (1)
S-OPLS

>  <r_lp_Energy> (1)
3.22966

>  <b_lp_Chiralities_Consistent> (1)
1

$$$$
