14283207_17a(H),21ß(H)-22,29,30-Trisnorhopane
                    3D
 Schrodinger Suite 2021-3.
 73 77  0  0  1  0            999 V2000
   -0.1501    0.3503   -0.0054 C   0  0  0  0  0  0
    1.3655    0.0596    0.0575 C   0  0  0  0  0  0
    2.0887    0.8020   -1.0922 C   0  0  0  0  0  0
    1.8804    0.1514   -2.4617 C   0  0  0  0  0  0
    2.3381   -1.3135   -2.4552 C   0  0  0  0  0  0
    1.6350   -2.1866   -1.3831 C   0  0  0  0  0  0
    1.7748   -1.4588   -0.0046 C   0  0  0  0  0  0
    1.1946   -2.2874    1.1599 C   0  0  0  0  0  0
    1.4485   -3.8111    1.0539 C   0  0  0  0  0  0
    2.6334   -4.1834    0.1318 C   0  0  0  0  0  0
    2.2727   -3.6607   -1.3072 C   0  0  0  0  0  0
    3.3954   -3.9829   -2.3143 C   0  0  0  0  0  0
    3.6840   -5.4932   -2.3659 C   0  0  0  0  0  0
    3.9979   -6.0405   -0.9676 C   0  0  0  0  0  0
    2.8126   -5.7781    0.0329 C   0  0  0  0  0  0
    3.2057   -6.3937    1.4087 C   0  0  0  0  0  0
    3.4817   -7.9303    1.3766 C   0  0  0  0  0  0
    3.7267   -8.4387   -0.0433 C   0  0  0  0  0  0
    4.6030   -7.4920   -0.8983 C   0  0  0  0  0  0
    4.6779   -8.3162   -2.2073 C   0  0  0  0  0  0
    4.8284   -9.7954   -1.7360 C   0  0  0  0  0  0
    4.3465   -9.8284   -0.2511 C   0  0  0  0  0  0
    6.0334   -7.3698   -0.3189 C   0  0  0  0  0  0
    1.4769   -6.4521   -0.4361 C   0  0  0  0  0  0
    3.9326   -3.5166    0.7005 C   0  0  0  0  0  0
    0.1594   -2.3927   -1.7998 C   0  0  0  0  0  0
    1.8770    0.6537    1.3905 C   0  0  0  0  0  0
   -0.3302    1.4018    0.2470 H   0  0  0  0  0  0
   -0.7131   -0.2546    0.7112 H   0  0  0  0  0  0
   -0.5819    0.1814   -0.9922 H   0  0  0  0  0  0
    1.7636    1.8505   -1.1093 H   0  0  0  0  0  0
    3.1666    0.8160   -0.8738 H   0  0  0  0  0  0
    0.8281    0.2225   -2.7608 H   0  0  0  0  0  0
    2.4444    0.7030   -3.2238 H   0  0  0  0  0  0
    2.1824   -1.7445   -3.4505 H   0  0  0  0  0  0
    3.4206   -1.3276   -2.2752 H   0  0  0  0  0  0
    2.8562   -1.4110    0.1573 H   0  0  0  0  0  0
    1.6202   -1.9125    2.0954 H   0  0  0  0  0  0
    0.1151   -2.1212    1.2412 H   0  0  0  0  0  0
    1.6109   -4.2154    2.0583 H   0  0  0  0  0  0
    0.5411   -4.2928    0.6813 H   0  0  0  0  0  0
    1.4499   -4.3041   -1.6276 H   0  0  0  0  0  0
    3.1138   -3.6468   -3.3165 H   0  0  0  0  0  0
    4.3212   -3.4501   -2.0631 H   0  0  0  0  0  0
    2.8263   -6.0111   -2.8136 H   0  0  0  0  0  0
    4.5324   -5.6785   -3.0351 H   0  0  0  0  0  0
    4.8064   -5.3968   -0.6100 H   0  0  0  0  0  0
    4.1027   -5.8919    1.7810 H   0  0  0  0  0  0
    2.4205   -6.1846    2.1418 H   0  0  0  0  0  0
    4.3490   -8.1527    2.0103 H   0  0  0  0  0  0
    2.6420   -8.4796    1.8170 H   0  0  0  0  0  0
    2.7567   -8.4812   -0.5466 H   0  0  0  0  0  0
    3.7488   -8.1976   -2.7752 H   0  0  0  0  0  0
    5.4964   -8.0036   -2.8643 H   0  0  0  0  0  0
    4.2385  -10.4677   -2.3663 H   0  0  0  0  0  0
    5.8674  -10.1293   -1.8162 H   0  0  0  0  0  0
    5.1856   -9.9915    0.4347 H   0  0  0  0  0  0
    3.6270  -10.6315   -0.0613 H   0  0  0  0  0  0
    6.5498   -8.3312   -0.2486 H   0  0  0  0  0  0
    6.0266   -6.9237    0.6811 H   0  0  0  0  0  0
    6.6385   -6.7229   -0.9644 H   0  0  0  0  0  0
    1.1046   -7.1592    0.3100 H   0  0  0  0  0  0
    1.5929   -7.0029   -1.3718 H   0  0  0  0  0  0
    0.6693   -5.7399   -0.6080 H   0  0  0  0  0  0
    4.3855   -2.8174   -0.0058 H   0  0  0  0  0  0
    4.7125   -4.2360    0.9523 H   0  0  0  0  0  0
    3.7270   -2.9581    1.6175 H   0  0  0  0  0  0
   -0.4034   -2.9352   -1.0334 H   0  0  0  0  0  0
    0.1143   -2.9840   -2.7215 H   0  0  0  0  0  0
   -0.3686   -1.4596   -1.9918 H   0  0  0  0  0  0
    2.9298    0.4030    1.5643 H   0  0  0  0  0  0
    1.2988    0.2972    2.2484 H   0  0  0  0  0  0
    1.7933    1.7465    1.3734 H   0  0  0  0  0  0
  1  2  1  0  0  0
  1 28  1  0  0  0
  1 29  1  0  0  0
  1 30  1  0  0  0
  2  7  1  0  0  0
  2  3  1  0  0  0
  2 27  1  0  0  0
  3  4  1  0  0  0
  3 31  1  0  0  0
  3 32  1  0  0  0
  4  5  1  0  0  0
  4 33  1  0  0  0
  4 34  1  0  0  0
  5  6  1  0  0  0
  5 35  1  0  0  0
  5 36  1  0  0  0
  6 11  1  0  0  0
  6  7  1  0  0  0
  6 26  1  0  0  0
  7  8  1  0  0  0
  7 37  1  0  0  0
  8  9  1  0  0  0
  8 38  1  0  0  0
  8 39  1  0  0  0
  9 10  1  0  0  0
  9 40  1  0  0  0
  9 41  1  0  0  0
 10 15  1  0  0  0
 10 11  1  0  0  0
 10 25  1  0  0  0
 11 12  1  0  0  0
 11 42  1  0  0  0
 12 13  1  0  0  0
 12 43  1  0  0  0
 12 44  1  0  0  0
 13 14  1  0  0  0
 13 45  1  0  0  0
 13 46  1  0  0  0
 14 19  1  0  0  0
 14 15  1  0  0  0
 14 47  1  0  0  0
 15 16  1  0  0  0
 15 24  1  0  0  0
 16 17  1  0  0  0
 16 48  1  0  0  0
 16 49  1  0  0  0
 17 18  1  0  0  0
 17 50  1  0  0  0
 17 51  1  0  0  0
 18 22  1  0  0  0
 18 19  1  0  0  0
 18 52  1  0  0  0
 19 20  1  0  0  0
 19 23  1  0  0  0
 20 21  1  0  0  0
 20 53  1  0  0  0
 20 54  1  0  0  0
 21 22  1  0  0  0
 21 55  1  0  0  0
 21 56  1  0  0  0
 22 57  1  0  0  0
 22 58  1  0  0  0
 23 59  1  0  0  0
 23 60  1  0  0  0
 23 61  1  0  0  0
 24 62  1  0  0  0
 24 63  1  0  0  0
 24 64  1  0  0  0
 25 65  1  0  0  0
 25 66  1  0  0  0
 25 67  1  0  0  0
 26 68  1  0  0  0
 26 69  1  0  0  0
 26 70  1  0  0  0
 27 71  1  0  0  0
 27 72  1  0  0  0
 27 73  1  0  0  0
M  END
>  <i_m_Spin_multiplicity> (1)
1

>  <s_j_Task> (1)
Single Point

>  <s_j_QM_Method> (1)
DFT(b3lyp-d3)

>  <s_j_QM_Basis> (1)
cc-pvtz(-f)

>  <i_j_Number_of_canonical_orbitals> (1)
1014

>  <i_j_Geometry_convergence_category> (1)
3

>  <r_j_Gas_Phase_Energy> (1)
-1056.98848469788

>  <r_j_Final_Energy> (1)
-1056.98848469788

>  <r_j_HOMO> (1)
-0.276515012202552

>  <r_j_LUMO> (1)
-0.0134686332551433

>  <r_j_Polarizability> (1)
296.341719191398

>  <r_j_QM_Dipole_(debye)> (1)
0.097906292130004

>  <r_j_QM_Dipole_X_(debye)> (1)
-0.0497247920623705

>  <r_j_QM_Dipole_Y_(debye)> (1)
0.0515607577404462

>  <r_j_QM_Dipole_Z_(debye)> (1)
-0.0667426052400618

>  <r_j_Lowest_Frequency_(cm-1)> (1)
62.2191822031499

>  <r_j_Highest_Frequency_(cm-1)> (1)
3107.46741799778

>  <r_j_2nd_Lowest_Frequency_(cm-1)> (1)
66.6453089367299

>  <i_j_Num_Negative_Frequencies> (1)
0

>  <r_j_Zero_Point_Energy_(kcal/mol)> (1)
428.595266075114

>  <r_j_Entropy_(cal/mol/K)_298.15K_1.00E+00atm> (1)
155.184999894856

>  <r_j_Enthalpy_(kcal/mol)_298.15K_1.00E+00atm> (1)
16.1734311635626

>  <r_j_Free_Energy_(kcal/mol)_298.15K_1.00E+00atm> (1)
-30.0949765550888

>  <r_j_Internal_Energy_(kcal/mol)_298.15K_1.00E+00atm> (1)
15.5809455747353

>  <r_j_Heat_Capacity_(cal/mol/K)_298.15K_1.00E+00atm> (1)
111.079342055608

>  <r_j_ln(Q)_298.15K_1.00E+00atm> (1)
50.7944448314038

>  <r_j_Total_Internal_Energy_(au)_298.15K_1.00E+00atm> (1)
-1056.28064484384

>  <r_j_Total_Enthalpy_(au)_298.15K_1.00E+00atm> (1)
-1056.27970065795

>  <r_j_Total_Free_Energy_(au)_298.15K_1.00E+00atm> (1)
-1056.35343405948

>  <r_lp_tautomer_probability> (1)
1

>  <r_epik_Ionization_Penalty> (1)
  0.0000

>  <r_epik_Ionization_Penalty_Charging> (1)
  0.0000

>  <r_epik_Ionization_Penalty_Neutral> (1)
  0.0000

>  <r_epik_State_Penalty> (1)
  0.0000

>  <r_epik_Charging_Adjusted_Penalty> (1)
0

>  <i_epik_Tot_Q> (1)
0

>  <i_epik_Tot_abs_Q> (1)
0

>  <s_lp_Force_Field> (1)
S-OPLS

>  <r_lp_Energy> (1)
109.579

>  <b_lp_Chiralities_Consistent> (1)
1

$$$$
