14315_1-ethylnaphthalene
                    3D
 Schrodinger Suite 2021-3.
 24 25  0  0  1  0            999 V2000
   -0.0437    0.0616    0.1135 C   0  0  0  0  0  0
    1.4805    0.0070   -0.0986 C   0  0  0  0  0  0
    2.0314   -1.4030   -0.0356 C   0  0  0  0  0  0
    2.3084   -2.0832   -1.2050 C   0  0  0  0  0  0
    2.7813   -3.4157   -1.2015 C   0  0  0  0  0  0
    2.9813   -4.0736   -0.0128 C   0  0  0  0  0  0
    2.7165   -3.4226    1.2211 C   0  0  0  0  0  0
    2.9209   -4.0851    2.4610 C   0  0  0  0  0  0
    2.6641   -3.4524    3.6545 C   0  0  0  0  0  0
    2.1911   -2.1199    3.6579 C   0  0  0  0  0  0
    1.9831   -1.4496    2.4736 C   0  0  0  0  0  0
    2.2347   -2.0703    1.2179 C   0  0  0  0  0  0
   -0.4108    1.0922    0.0656 H   0  0  0  0  0  0
   -0.3246   -0.3567    1.0846 H   0  0  0  0  0  0
   -0.5584   -0.5213   -0.6569 H   0  0  0  0  0  0
    1.7208    0.4376   -1.0769 H   0  0  0  0  0  0
    1.9784    0.6443    0.6417 H   0  0  0  0  0  0
    2.1569   -1.5801   -2.1570 H   0  0  0  0  0  0
    2.9865   -3.9132   -2.1449 H   0  0  0  0  0  0
    3.3449   -5.0978    0.0023 H   0  0  0  0  0  0
    3.2874   -5.1085    2.4480 H   0  0  0  0  0  0
    2.8242   -3.9717    4.5949 H   0  0  0  0  0  0
    1.9917   -1.6225    4.6028 H   0  0  0  0  0  0
    1.6212   -0.4278    2.5015 H   0  0  0  0  0  0
  1  2  1  0  0  0
  1 13  1  0  0  0
  1 14  1  0  0  0
  1 15  1  0  0  0
  2  3  1  0  0  0
  2 16  1  0  0  0
  2 17  1  0  0  0
  3 12  1  0  0  0
  3  4  2  0  0  0
  4  5  1  0  0  0
  4 18  1  0  0  0
  5  6  2  0  0  0
  5 19  1  0  0  0
  6  7  1  0  0  0
  6 20  1  0  0  0
  7 12  1  0  0  0
  7  8  2  0  0  0
  8  9  1  0  0  0
  8 21  1  0  0  0
  9 10  2  0  0  0
  9 22  1  0  0  0
 10 11  1  0  0  0
 10 23  1  0  0  0
 11 12  2  0  0  0
 11 24  1  0  0  0
M  END
>  <i_m_Spin_multiplicity> (1)
1

>  <s_j_Task> (1)
Single Point

>  <s_j_QM_Method> (1)
DFT(b3lyp-d3)

>  <s_j_QM_Basis> (1)
cc-pvtz(-f)

>  <i_j_Number_of_canonical_orbitals> (1)
374

>  <i_j_Geometry_convergence_category> (1)
3

>  <r_j_Gas_Phase_Energy> (1)
-464.682434696163

>  <r_j_Final_Energy> (1)
-464.682434696163

>  <r_j_HOMO> (1)
-0.238144285712341

>  <r_j_LUMO> (1)
-0.0680029498075794

>  <r_j_Polarizability> (1)
137.324721317231

>  <r_j_QM_Dipole_(debye)> (1)
0.337939116967639

>  <r_j_QM_Dipole_X_(debye)> (1)
-0.16439523931346

>  <r_j_QM_Dipole_Y_(debye)> (1)
0.289052240741613

>  <r_j_QM_Dipole_Z_(debye)> (1)
-0.0602150661395516

>  <r_j_Lowest_Frequency_(cm-1)> (1)
115.29641599384

>  <r_j_Highest_Frequency_(cm-1)> (1)
3156.15884249866

>  <r_j_2nd_Lowest_Frequency_(cm-1)> (1)
125.991929066789

>  <i_j_Num_Negative_Frequencies> (1)
0

>  <r_j_Zero_Point_Energy_(kcal/mol)> (1)
127.484913404665

>  <r_j_Entropy_(cal/mol/K)_298.15K_1.00E+00atm> (1)
93.8338076547419

>  <r_j_Enthalpy_(kcal/mol)_298.15K_1.00E+00atm> (1)
6.46359228157791

>  <r_j_Free_Energy_(kcal/mol)_298.15K_1.00E+00atm> (1)
-21.5129574706834

>  <r_j_Internal_Energy_(kcal/mol)_298.15K_1.00E+00atm> (1)
5.87110669275064

>  <r_j_Heat_Capacity_(cal/mol/K)_298.15K_1.00E+00atm> (1)
38.9382674519595

>  <r_j_ln(Q)_298.15K_1.00E+00atm> (1)
36.3096721276625

>  <r_j_Total_Internal_Energy_(au)_298.15K_1.00E+00atm> (1)
-464.469918349442

>  <r_j_Total_Enthalpy_(au)_298.15K_1.00E+00atm> (1)
-464.46897416355

>  <r_j_Total_Free_Energy_(au)_298.15K_1.00E+00atm> (1)
-464.513557633744

>  <r_lp_tautomer_probability> (1)
1

>  <r_epik_Ionization_Penalty> (1)
  0.0000

>  <r_epik_Ionization_Penalty_Charging> (1)
  0.0000

>  <r_epik_Ionization_Penalty_Neutral> (1)
  0.0000

>  <r_epik_State_Penalty> (1)
  0.0000

>  <r_epik_Charging_Adjusted_Penalty> (1)
0

>  <i_epik_Tot_Q> (1)
0

>  <i_epik_Tot_abs_Q> (1)
0

>  <s_lp_Force_Field> (1)
S-OPLS

>  <r_lp_Energy> (1)
21.482

>  <b_lp_Chiralities_Consistent> (1)
1

$$$$
