14325074_Phenylfluoranthene
                    3D
 Schrodinger Suite 2021-3.
 36 40  0  0  1  0            999 V2000
   -2.8103   -0.0006    0.0125 C   0  0  0  0  0  0
   -2.1097   -1.2075    0.0031 C   0  0  0  0  0  0
   -0.7150   -1.2071   -0.0123 C   0  0  0  0  0  0
   -0.0045    0.0002   -0.0177 C   0  0  0  0  0  0
   -0.7157    1.2071   -0.0124 C   0  0  0  0  0  0
   -2.1104    1.2067    0.0031 C   0  0  0  0  0  0
    1.4864    0.0005    0.0029 C   0  0  0  0  0  0
    2.2031    0.0004    1.1875 C   0  0  0  0  0  0
    1.8481    0.0004    2.6213 C   0  0  0  0  0  0
    0.6180    0.0006    3.2746 C   0  0  0  0  0  0
    0.6008    0.0005    4.6748 C   0  0  0  0  0  0
    1.7896    0.0001    5.4097 C   0  0  0  0  0  0
    3.0304   -0.0002    4.7619 C   0  0  0  0  0  0
    3.0618    0.0000    3.3721 C   0  0  0  0  0  0
    4.1901   -0.0002    2.4236 C   0  0  0  0  0  0
    5.5653   -0.0007    2.5341 C   0  0  0  0  0  0
    6.3460   -0.0007    1.3445 C   0  0  0  0  0  0
    5.7778   -0.0003    0.0820 C   0  0  0  0  0  0
    4.3615    0.0001   -0.0623 C   0  0  0  0  0  0
    3.6185    0.0001    1.1269 C   0  0  0  0  0  0
    3.6059    0.0004   -1.2685 C   0  0  0  0  0  0
    2.2240    0.0006   -1.2211 C   0  0  0  0  0  0
   -3.8962   -0.0009    0.0281 H   0  0  0  0  0  0
   -2.6488   -2.1505    0.0117 H   0  0  0  0  0  0
   -0.1668   -2.1447   -0.0086 H   0  0  0  0  0  0
   -0.1681    2.1451   -0.0088 H   0  0  0  0  0  0
   -2.6500    2.1493    0.0116 H   0  0  0  0  0  0
   -0.3079    0.0009    2.7104 H   0  0  0  0  0  0
   -0.3515    0.0007    5.1972 H   0  0  0  0  0  0
    1.7506    0.0000    6.4951 H   0  0  0  0  0  0
    3.9524   -0.0005    5.3367 H   0  0  0  0  0  0
    6.0597   -0.0010    3.5014 H   0  0  0  0  0  0
    7.4284   -0.0011    1.4361 H   0  0  0  0  0  0
    6.4106   -0.0003   -0.8014 H   0  0  0  0  0  0
    4.1167    0.0004   -2.2271 H   0  0  0  0  0  0
    1.6584    0.0007   -2.1484 H   0  0  0  0  0  0
  1  6  1  0  0  0
  1  2  2  0  0  0
  1 23  1  0  0  0
  2  3  1  0  0  0
  2 24  1  0  0  0
  3  4  2  0  0  0
  3 25  1  0  0  0
  4  5  1  0  0  0
  4  7  1  0  0  0
  5  6  2  0  0  0
  5 26  1  0  0  0
  6 27  1  0  0  0
  7 22  1  0  0  0
  7  8  2  0  0  0
  8 20  1  0  0  0
  8  9  1  0  0  0
  9 14  1  0  0  0
  9 10  2  0  0  0
 10 11  1  0  0  0
 10 28  1  0  0  0
 11 12  2  0  0  0
 11 29  1  0  0  0
 12 13  1  0  0  0
 12 30  1  0  0  0
 13 14  2  0  0  0
 13 31  1  0  0  0
 14 15  1  0  0  0
 15 20  1  0  0  0
 15 16  2  0  0  0
 16 17  1  0  0  0
 16 32  1  0  0  0
 17 18  2  0  0  0
 17 33  1  0  0  0
 18 19  1  0  0  0
 18 34  1  0  0  0
 19 20  2  0  0  0
 19 21  1  0  0  0
 21 22  2  0  0  0
 21 35  1  0  0  0
 22 36  1  0  0  0
M  END
>  <i_m_Spin_multiplicity> (1)
1

>  <s_j_Task> (1)
Single Point

>  <s_j_QM_Method> (1)
DFT(b3lyp-d3)

>  <s_j_QM_Basis> (1)
cc-pvtz(-f)

>  <i_j_Number_of_canonical_orbitals> (1)
613

>  <i_j_Geometry_convergence_category> (1)
0

>  <r_j_Gas_Phase_Energy> (1)
-847.079229038093

>  <r_j_Final_Energy> (1)
-847.079229038093

>  <r_j_HOMO> (1)
-0.22939112461134

>  <r_j_LUMO> (1)
-0.0844483145985772

>  <r_j_Polarizability> (1)
256.057168461715

>  <r_j_QM_Dipole_(debye)> (1)
0.353569670608185

>  <r_j_QM_Dipole_X_(debye)> (1)
-0.173720173548542

>  <r_j_QM_Dipole_Y_(debye)> (1)
-0.000425683482654738

>  <r_j_QM_Dipole_Z_(debye)> (1)
-0.307949073825231

>  <r_j_Lowest_Frequency_(cm-1)> (1)
61.2597906287817

>  <r_j_Highest_Frequency_(cm-1)> (1)
3161.46292372881

>  <r_j_2nd_Lowest_Frequency_(cm-1)> (1)
67.6480653740359

>  <i_j_Num_Negative_Frequencies> (1)
0

>  <r_j_Zero_Point_Energy_(kcal/mol)> (1)
179.43097738975

>  <r_j_Entropy_(cal/mol/K)_298.15K_1.00E+00atm> (1)
118.759185057831

>  <r_j_Enthalpy_(kcal/mol)_298.15K_1.00E+00atm> (1)
9.76793482249632

>  <r_j_Free_Energy_(kcal/mol)_298.15K_1.00E+00atm> (1)
-25.6401162024961

>  <r_j_Internal_Energy_(kcal/mol)_298.15K_1.00E+00atm> (1)
9.17544923366905

>  <r_j_Heat_Capacity_(cal/mol/K)_298.15K_1.00E+00atm> (1)
63.41440414919

>  <r_j_ln(Q)_298.15K_1.00E+00atm> (1)
43.2755103010123

>  <r_j_Total_Internal_Energy_(au)_298.15K_1.00E+00atm> (1)
-846.778665563531

>  <r_j_Total_Enthalpy_(au)_298.15K_1.00E+00atm> (1)
-846.777721377639

>  <r_j_Total_Free_Energy_(au)_298.15K_1.00E+00atm> (1)
-846.834147699022

>  <r_lp_tautomer_probability> (1)
1

>  <r_epik_Ionization_Penalty> (1)
  0.0000

>  <r_epik_Ionization_Penalty_Charging> (1)
  0.0000

>  <r_epik_Ionization_Penalty_Neutral> (1)
  0.0000

>  <r_epik_State_Penalty> (1)
  0.0000

>  <r_epik_Charging_Adjusted_Penalty> (1)
0

>  <i_epik_Tot_Q> (1)
0

>  <i_epik_Tot_abs_Q> (1)
0

>  <s_lp_Force_Field> (1)
S-OPLS

>  <r_lp_Energy> (1)
42.7047

>  <b_lp_Chiralities_Consistent> (1)
1

$$$$
