14410_Decabromodiphenyl oxide
                    3D
 Schrodinger Suite 2021-3.
 23 24  0  0  1  0            999 V2000
   -0.1727   -0.1066    0.1444 C   0  0  0  0  0  0
   -1.0069   -1.2187    0.3095 C   0  0  0  0  0  0
   -2.3975   -1.0706    0.1771 C   0  0  0  0  0  0
   -2.9429    0.1735   -0.1803 C   0  0  0  0  0  0
   -2.0929    1.2686   -0.4228 C   0  0  0  0  0  0
   -0.7116    1.1244   -0.2560 C   0  0  0  0  0  0
    0.5020    2.5615   -0.5112 Br  0  0  0  0  0  0
   -2.8074    2.9481   -0.9488 Br  0  0  0  0  0  0
   -4.8262    0.3782   -0.3474 Br  0  0  0  0  0  0
   -3.5336   -2.5650    0.4756 Br  0  0  0  0  0  0
   -0.2358   -2.9179    0.6779 Br  0  0  0  0  0  0
    1.1909   -0.1474    0.2587 O   0  0  0  0  0  0
    1.8747   -0.7231    1.2958 C   0  0  0  0  0  0
    1.5928   -0.4879    2.6467 C   0  0  0  0  0  0
    2.3506   -1.1333    3.6377 C   0  0  0  0  0  0
    3.4255   -1.9611    3.2751 C   0  0  0  0  0  0
    3.7540   -2.1305    1.9173 C   0  0  0  0  0  0
    2.9747   -1.5133    0.9334 C   0  0  0  0  0  0
    3.3144   -1.7299   -0.9215 Br  0  0  0  0  0  0
    5.2304   -3.2116    1.4080 Br  0  0  0  0  0  0
    4.4446   -2.8452    4.6156 Br  0  0  0  0  0  0
    1.9179   -0.8712    5.4699 Br  0  0  0  0  0  0
    0.2069    0.7283    3.1132 Br  0  0  0  0  0  0
  1  6  1  0  0  0
  1  2  2  0  0  0
  1 12  1  0  0  0
  2  3  1  0  0  0
  2 11  1  0  0  0
  3  4  2  0  0  0
  3 10  1  0  0  0
  4  5  1  0  0  0
  4  9  1  0  0  0
  5  6  2  0  0  0
  5  8  1  0  0  0
  6  7  1  0  0  0
 12 13  1  0  0  0
 13 18  1  0  0  0
 13 14  2  0  0  0
 14 15  1  0  0  0
 14 23  1  0  0  0
 15 16  2  0  0  0
 15 22  1  0  0  0
 16 17  1  0  0  0
 16 21  1  0  0  0
 17 18  2  0  0  0
 17 20  1  0  0  0
 18 19  1  0  0  0
M  END
>  <i_m_Spin_multiplicity> (1)
1

>  <s_j_Task> (1)
Single Point

>  <s_j_QM_Method> (1)
DFT(b3lyp-d3)

>  <s_j_QM_Basis> (1)
cc-pvtz(-f)

>  <i_j_Number_of_canonical_orbitals> (1)
647

>  <i_j_Geometry_convergence_category> (1)
3

>  <r_j_Gas_Phase_Energy> (1)
-26274.8777298502

>  <r_j_Final_Energy> (1)
-26274.8777298502

>  <r_j_HOMO> (1)
-0.263748772285814

>  <r_j_LUMO> (1)
-0.112363617135922

>  <r_j_Polarizability> (1)
344.991274918692

>  <r_j_QM_Dipole_(debye)> (1)
0.323230997133359

>  <r_j_QM_Dipole_X_(debye)> (1)
-0.171376457141871

>  <r_j_QM_Dipole_Y_(debye)> (1)
-0.137302594143903

>  <r_j_QM_Dipole_Z_(debye)> (1)
0.237184285075299

>  <r_j_Lowest_Frequency_(cm-1)> (1)
-1701.50969717777

>  <r_j_Highest_Frequency_(cm-1)> (1)
1516.15034151852

>  <r_j_2nd_Lowest_Frequency_(cm-1)> (1)
-1701.4301558564

>  <i_j_Num_Negative_Frequencies> (1)
10

>  <r_j_Zero_Point_Energy_(kcal/mol)> (1)
72.0371313894398

>  <r_j_Entropy_(cal/mol/K)_298.15K_1.00E+00atm> (1)
100.654574481994

>  <r_j_Enthalpy_(kcal/mol)_298.15K_1.00E+00atm> (1)
5.54585131847436

>  <r_j_Free_Energy_(kcal/mol)_298.15K_1.00E+00atm> (1)
-24.4643100633321

>  <r_j_Internal_Energy_(kcal/mol)_298.15K_1.00E+00atm> (1)
4.95336572964709

>  <r_j_Heat_Capacity_(cal/mol/K)_298.15K_1.00E+00atm> (1)
37.0094454874798

>  <r_j_ln(Q)_298.15K_1.00E+00atm> (1)
41.290979096648

>  <r_j_Total_Internal_Energy_(au)_298.15K_1.00E+00atm> (1)
-26274.7550376825

>  <r_j_Total_Enthalpy_(au)_298.15K_1.00E+00atm> (1)
-26274.7540934966

>  <r_j_Total_Free_Energy_(au)_298.15K_1.00E+00atm> (1)
-26274.8019177333

>  <r_lp_tautomer_probability> (1)
1

>  <r_epik_Ionization_Penalty> (1)
  0.0000

>  <r_epik_Ionization_Penalty_Charging> (1)
  0.0000

>  <r_epik_Ionization_Penalty_Neutral> (1)
  0.0000

>  <r_epik_State_Penalty> (1)
  0.0000

>  <r_epik_Charging_Adjusted_Penalty> (1)
0

>  <i_epik_Tot_Q> (1)
0

>  <i_epik_Tot_abs_Q> (1)
0

>  <s_lp_Force_Field> (1)
S-OPLS

>  <r_lp_Energy> (1)
24.377281

>  <b_lp_Chiralities_Consistent> (1)
1

$$$$
