145744_2-oxobutanal
                    3D
 Schrodinger Suite 2021-3.
 12 11  0  0  1  0            999 V2000
   -0.5428    1.3627   -0.1485 C   0  0  0  0  0  0
    0.0503   -0.0416    0.0908 C   0  0  0  0  0  0
    1.5575   -0.0080    0.0179 C   0  0  0  0  0  0
    2.3066   -0.0460    0.9758 O   0  0  0  0  0  0
    2.1951    0.1146   -1.3756 C   0  0  0  0  0  0
    1.5523    0.1459   -2.4006 O   0  0  0  0  0  0
   -1.6328    1.3267   -0.0732 H   0  0  0  0  0  0
   -0.2818    1.7280   -1.1449 H   0  0  0  0  0  0
   -0.1734    2.0752    0.5954 H   0  0  0  0  0  0
   -0.2282   -0.4207    1.0773 H   0  0  0  0  0  0
   -0.3235   -0.7256   -0.6790 H   0  0  0  0  0  0
    3.3042    0.1659   -1.3453 H   0  0  0  0  0  0
  1  2  1  0  0  0
  1  7  1  0  0  0
  1  8  1  0  0  0
  1  9  1  0  0  0
  2  3  1  0  0  0
  2 10  1  0  0  0
  2 11  1  0  0  0
  3  4  2  0  0  0
  3  5  1  0  0  0
  5  6  2  0  0  0
  5 12  1  0  0  0
M  END
>  <i_m_Spin_multiplicity> (1)
1

>  <s_j_Task> (1)
Single Point

>  <s_j_QM_Method> (1)
DFT(b3lyp-d3)

>  <s_j_QM_Basis> (1)
cc-pvtz(-f)

>  <i_j_Number_of_canonical_orbitals> (1)
191

>  <i_j_Geometry_convergence_category> (1)
1

>  <r_j_Gas_Phase_Energy> (1)
-306.578629987089

>  <r_j_Final_Energy> (1)
-306.578629987089

>  <r_j_HOMO> (1)
-0.259240850989574

>  <r_j_LUMO> (1)
-0.105571418727526

>  <r_j_Polarizability> (1)
51.3451583014707

>  <r_j_QM_Dipole_(debye)> (1)
1.15566262101843

>  <r_j_QM_Dipole_X_(debye)> (1)
-1.13495169357111

>  <r_j_QM_Dipole_Y_(debye)> (1)
0.188974344593046

>  <r_j_QM_Dipole_Z_(debye)> (1)
0.108302557517793

>  <r_j_Lowest_Frequency_(cm-1)> (1)
108.637496450943

>  <r_j_Highest_Frequency_(cm-1)> (1)
3084.40063449309

>  <r_j_2nd_Lowest_Frequency_(cm-1)> (1)
174.354990699601

>  <i_j_Num_Negative_Frequencies> (1)
0

>  <r_j_Zero_Point_Energy_(kcal/mol)> (1)
58.9940685376048

>  <r_j_Entropy_(cal/mol/K)_298.15K_1.00E+00atm> (1)
79.1054870967796

>  <r_j_Enthalpy_(kcal/mol)_298.15K_1.00E+00atm> (1)
4.65190721547065

>  <r_j_Free_Energy_(kcal/mol)_298.15K_1.00E+00atm> (1)
-18.9333937624342

>  <r_j_Internal_Energy_(kcal/mol)_298.15K_1.00E+00atm> (1)
4.05942162664338

>  <r_j_Heat_Capacity_(cal/mol/K)_298.15K_1.00E+00atm> (1)
22.0299656024031

>  <r_j_ln(Q)_298.15K_1.00E+00atm> (1)
31.9558722093303

>  <r_j_Total_Internal_Energy_(au)_298.15K_1.00E+00atm> (1)
-306.478147853864

>  <r_j_Total_Enthalpy_(au)_298.15K_1.00E+00atm> (1)
-306.477203667972

>  <r_j_Total_Free_Energy_(au)_298.15K_1.00E+00atm> (1)
-306.514789237761

>  <r_lp_tautomer_probability> (1)
1

>  <r_epik_Ionization_Penalty> (1)
  0.0000

>  <r_epik_Ionization_Penalty_Charging> (1)
  0.0000

>  <r_epik_Ionization_Penalty_Neutral> (1)
  0.0000

>  <r_epik_State_Penalty> (1)
  0.0000

>  <r_epik_Charging_Adjusted_Penalty> (1)
0

>  <i_epik_Tot_Q> (1)
0

>  <i_epik_Tot_abs_Q> (1)
0

>  <s_lp_Force_Field> (1)
S-OPLS

>  <r_lp_Energy> (1)
2.4693

>  <b_lp_Chiralities_Consistent> (1)
1

$$$$
