14619934_Cadinene
                    3D
 Schrodinger Suite 2021-3.
 41 42  0  0  1  0            999 V2000
   -0.5044   -0.7324    1.3582 C   0  0  0  0  0  0
   -0.0312   -0.0265    0.0770 C   0  0  0  0  0  0
   -0.7831   -0.5777   -1.1455 C   0  0  0  0  0  0
    1.5141   -0.0667   -0.0646 C   0  0  0  0  0  0
    2.0765   -1.5004   -0.0851 C   0  0  0  0  0  0
    3.5498   -1.5468   -0.3864 C   0  0  0  0  0  0
    4.2681   -0.5253   -0.8689 C   0  0  0  0  0  0
    5.7591   -0.6471   -1.0683 C   0  0  0  0  0  0
    3.6170    0.8118   -1.1878 C   0  0  0  0  0  0
    4.1794    1.4806   -2.4603 C   0  0  0  0  0  0
    3.5564    2.8631   -2.6884 C   0  0  0  0  0  0
    2.0229    2.8079   -2.7386 C   0  0  0  0  0  0
    1.4112    4.2009   -2.9171 C   0  0  0  0  0  0
    1.4698    2.1052   -1.4868 C   0  0  0  0  0  0
    2.0742    0.7056   -1.2822 C   0  0  0  0  0  0
   -0.3644   -1.8171    1.2986 H   0  0  0  0  0  0
   -1.5712   -0.5510    1.5282 H   0  0  0  0  0  0
    0.0417   -0.3725    2.2377 H   0  0  0  0  0  0
   -0.3086    1.0300    0.1834 H   0  0  0  0  0  0
   -0.5888   -1.6461   -1.2886 H   0  0  0  0  0  0
   -0.5035   -0.0633   -2.0699 H   0  0  0  0  0  0
   -1.8642   -0.4593   -1.0144 H   0  0  0  0  0  0
    1.9180    0.4254    0.8341 H   0  0  0  0  0  0
    1.8982   -1.9880    0.8815 H   0  0  0  0  0  0
    1.5338   -2.1100   -0.8234 H   0  0  0  0  0  0
    4.0545   -2.4886   -0.1710 H   0  0  0  0  0  0
    6.2940    0.1651   -0.5581 H   0  0  0  0  0  0
    6.0386   -0.5875   -2.1271 H   0  0  0  0  0  0
    6.1354   -1.5962   -0.6762 H   0  0  0  0  0  0
    3.8503    1.4938   -0.3498 H   0  0  0  0  0  0
    5.2675    1.5808   -2.3911 H   0  0  0  0  0  0
    3.9784    0.8325   -3.3252 H   0  0  0  0  0  0
    3.8591    3.5327   -1.8692 H   0  0  0  0  0  0
    3.9472    3.3075   -3.6125 H   0  0  0  0  0  0
    1.7408    2.1947   -3.6092 H   0  0  0  0  0  0
    1.6643    4.8481   -2.0683 H   0  0  0  0  0  0
    0.3186    4.1518   -2.9835 H   0  0  0  0  0  0
    1.7824    4.6852   -3.8271 H   0  0  0  0  0  0
    1.6789    2.7237   -0.6001 H   0  0  0  0  0  0
    0.3797    2.0483   -1.5714 H   0  0  0  0  0  0
    1.8519    0.1115   -2.1827 H   0  0  0  0  0  0
  1  2  1  0  0  0
  1 16  1  0  0  0
  1 17  1  0  0  0
  1 18  1  0  0  0
  2  3  1  0  0  0
  2  4  1  0  0  0
  2 19  1  0  0  0
  3 20  1  0  0  0
  3 21  1  0  0  0
  3 22  1  0  0  0
  4 15  1  0  0  0
  4  5  1  0  0  0
  4 23  1  0  0  0
  5  6  1  0  0  0
  5 24  1  0  0  0
  5 25  1  0  0  0
  6  7  2  0  0  0
  6 26  1  0  0  0
  7  8  1  0  0  0
  7  9  1  0  0  0
  8 27  1  0  0  0
  8 28  1  0  0  0
  8 29  1  0  0  0
  9 15  1  0  0  0
  9 10  1  0  0  0
  9 30  1  0  0  0
 10 11  1  0  0  0
 10 31  1  0  0  0
 10 32  1  0  0  0
 11 12  1  0  0  0
 11 33  1  0  0  0
 11 34  1  0  0  0
 12 13  1  0  0  0
 12 14  1  0  0  0
 12 35  1  0  0  0
 13 36  1  0  0  0
 13 37  1  0  0  0
 13 38  1  0  0  0
 14 15  1  0  0  0
 14 39  1  0  0  0
 14 40  1  0  0  0
 15 41  1  0  0  0
M  END
>  <i_m_Spin_multiplicity> (1)
1

>  <s_j_Task> (1)
Single Point

>  <s_j_QM_Method> (1)
DFT(b3lyp-d3)

>  <s_j_QM_Basis> (1)
cc-pvtz(-f)

>  <i_j_Number_of_canonical_orbitals> (1)
571

>  <i_j_Geometry_convergence_category> (1)
3

>  <r_j_Gas_Phase_Energy> (1)
-587.501727640201

>  <r_j_Final_Energy> (1)
-587.501727640201

>  <r_j_HOMO> (1)
-0.227610645120917

>  <r_j_LUMO> (1)
0.0221939939671466

>  <r_j_Polarizability> (1)
171.785338830462

>  <r_j_QM_Dipole_(debye)> (1)
0.273906242404193

>  <r_j_QM_Dipole_X_(debye)> (1)
-0.0438420087601255

>  <r_j_QM_Dipole_Y_(debye)> (1)
0.255930350138521

>  <r_j_QM_Dipole_Z_(debye)> (1)
-0.0871903880816898

>  <r_j_Lowest_Frequency_(cm-1)> (1)
90.8215930082516

>  <r_j_Highest_Frequency_(cm-1)> (1)
3081.54035037095

>  <r_j_2nd_Lowest_Frequency_(cm-1)> (1)
97.4935410320734

>  <i_j_Num_Negative_Frequencies> (1)
0

>  <r_j_Zero_Point_Energy_(kcal/mol)> (1)
238.278021805521

>  <r_j_Entropy_(cal/mol/K)_298.15K_1.00E+00atm> (1)
116.642483994316

>  <r_j_Enthalpy_(kcal/mol)_298.15K_1.00E+00atm> (1)
9.92385208619237

>  <r_j_Free_Energy_(kcal/mol)_298.15K_1.00E+00atm> (1)
-24.853104516713

>  <r_j_Internal_Energy_(kcal/mol)_298.15K_1.00E+00atm> (1)
9.3313664973651

>  <r_j_Heat_Capacity_(cal/mol/K)_298.15K_1.00E+00atm> (1)
62.2607273417396

>  <r_j_ln(Q)_298.15K_1.00E+00atm> (1)
41.947188227659

>  <r_j_Total_Internal_Energy_(au)_298.15K_1.00E+00atm> (1)
-587.107136960473

>  <r_j_Total_Enthalpy_(au)_298.15K_1.00E+00atm> (1)
-587.106192774581

>  <r_j_Total_Free_Energy_(au)_298.15K_1.00E+00atm> (1)
-587.161613382979

>  <r_lp_tautomer_probability> (1)
1

>  <r_epik_Ionization_Penalty> (1)
  0.0000

>  <r_epik_Ionization_Penalty_Charging> (1)
  0.0000

>  <r_epik_Ionization_Penalty_Neutral> (1)
  0.0000

>  <r_epik_State_Penalty> (1)
  0.0000

>  <r_epik_Charging_Adjusted_Penalty> (1)
0

>  <i_epik_Tot_Q> (1)
0

>  <i_epik_Tot_abs_Q> (1)
0

>  <s_lp_Force_Field> (1)
S-OPLS

>  <r_lp_Energy> (1)
15.6517

>  <b_lp_Chiralities_Consistent> (1)
1

$$$$
