146998_1-methylfluoranthene
                    3D
 Schrodinger Suite 2021-3.
 29 32  0  0  1  0            999 V2000
   -0.0413   -0.1038    0.0001 C   0  0  0  0  0  0
    1.4628    0.0084    0.0000 C   0  0  0  0  0  0
    2.1728    1.2004   -0.0001 C   0  0  0  0  0  0
    1.8358    2.6460   -0.0001 C   0  0  0  0  0  0
    0.6272    3.3407   -0.0003 C   0  0  0  0  0  0
    0.6359    4.7401   -0.0001 C   0  0  0  0  0  0
    1.8374    5.4520    0.0002 C   0  0  0  0  0  0
    3.0593    4.7729    0.0003 C   0  0  0  0  0  0
    3.0591    3.3827    0.0001 C   0  0  0  0  0  0
    4.1755    2.4279    0.0000 C   0  0  0  0  0  0
    5.5518    2.5409   -0.0001 C   0  0  0  0  0  0
    6.3334    1.3547   -0.0001 C   0  0  0  0  0  0
    5.7596    0.0943    0.0000 C   0  0  0  0  0  0
    4.3444   -0.0472    0.0000 C   0  0  0  0  0  0
    3.5943    1.1372   -0.0001 C   0  0  0  0  0  0
    3.5949   -1.2569    0.0000 C   0  0  0  0  0  0
    2.2171   -1.2083    0.0001 C   0  0  0  0  0  0
   -0.5376    0.8644    0.0001 H   0  0  0  0  0  0
   -0.3867   -0.6577    0.8810 H   0  0  0  0  0  0
   -0.3869   -0.6579   -0.8805 H   0  0  0  0  0  0
   -0.3227    2.8198   -0.0005 H   0  0  0  0  0  0
   -0.3078    5.2778   -0.0002 H   0  0  0  0  0  0
    1.8219    6.5379    0.0003 H   0  0  0  0  0  0
    3.9965    5.3226    0.0005 H   0  0  0  0  0  0
    6.0418    3.5103   -0.0001 H   0  0  0  0  0  0
    7.4160    1.4436   -0.0001 H   0  0  0  0  0  0
    6.3887   -0.7919    0.0000 H   0  0  0  0  0  0
    4.1091   -2.2144    0.0001 H   0  0  0  0  0  0
    1.6594   -2.1422    0.0002 H   0  0  0  0  0  0
  1  2  1  0  0  0
  1 18  1  0  0  0
  1 19  1  0  0  0
  1 20  1  0  0  0
  2 17  1  0  0  0
  2  3  2  0  0  0
  3 15  1  0  0  0
  3  4  1  0  0  0
  4  9  1  0  0  0
  4  5  2  0  0  0
  5  6  1  0  0  0
  5 21  1  0  0  0
  6  7  2  0  0  0
  6 22  1  0  0  0
  7  8  1  0  0  0
  7 23  1  0  0  0
  8  9  2  0  0  0
  8 24  1  0  0  0
  9 10  1  0  0  0
 10 15  1  0  0  0
 10 11  2  0  0  0
 11 12  1  0  0  0
 11 25  1  0  0  0
 12 13  2  0  0  0
 12 26  1  0  0  0
 13 14  1  0  0  0
 13 27  1  0  0  0
 14 15  2  0  0  0
 14 16  1  0  0  0
 16 17  2  0  0  0
 16 28  1  0  0  0
 17 29  1  0  0  0
M  END
>  <i_m_Spin_multiplicity> (1)
1

>  <s_j_Task> (1)
Single Point

>  <s_j_QM_Method> (1)
DFT(b3lyp-d3)

>  <s_j_QM_Basis> (1)
cc-pvtz(-f)

>  <i_j_Number_of_canonical_orbitals> (1)
483

>  <i_j_Geometry_convergence_category> (1)
3

>  <r_j_Gas_Phase_Energy> (1)
-655.278643154988

>  <r_j_Final_Energy> (1)
-655.278643154988

>  <r_j_HOMO> (1)
-0.208419113167109

>  <r_j_LUMO> (1)
-0.0633472608748941

>  <r_j_Polarizability> (1)
201.080044601449

>  <r_j_QM_Dipole_(debye)> (1)
0.646082770496713

>  <r_j_QM_Dipole_X_(debye)> (1)
-0.285966693468012

>  <r_j_QM_Dipole_Y_(debye)> (1)
-0.579349605077112

>  <r_j_QM_Dipole_Z_(debye)> (1)
0.000177923228360577

>  <r_j_Lowest_Frequency_(cm-1)> (1)
91.4246291051406

>  <r_j_Highest_Frequency_(cm-1)> (1)
3166.1866996842

>  <r_j_2nd_Lowest_Frequency_(cm-1)> (1)
118.73351246244

>  <i_j_Num_Negative_Frequencies> (1)
0

>  <r_j_Zero_Point_Energy_(kcal/mol)> (1)
146.16322022696

>  <r_j_Entropy_(cal/mol/K)_298.15K_1.00E+00atm> (1)
105.694818330508

>  <r_j_Enthalpy_(kcal/mol)_298.15K_1.00E+00atm> (1)
8.00962851159879

>  <r_j_Free_Energy_(kcal/mol)_298.15K_1.00E+00atm> (1)
-23.5032815736422

>  <r_j_Internal_Energy_(kcal/mol)_298.15K_1.00E+00atm> (1)
7.41714292277152

>  <r_j_Heat_Capacity_(cal/mol/K)_298.15K_1.00E+00atm> (1)
50.3968490132642

>  <r_j_ln(Q)_298.15K_1.00E+00atm> (1)
39.6689506324754

>  <r_j_Total_Internal_Energy_(au)_298.15K_1.00E+00atm> (1)
-655.033897265894

>  <r_j_Total_Enthalpy_(au)_298.15K_1.00E+00atm> (1)
-655.032953080002

>  <r_j_Total_Free_Energy_(au)_298.15K_1.00E+00atm> (1)
-655.083172099143

>  <r_lp_tautomer_probability> (1)
1

>  <r_epik_Ionization_Penalty> (1)
  0.0000

>  <r_epik_Ionization_Penalty_Charging> (1)
  0.0000

>  <r_epik_Ionization_Penalty_Neutral> (1)
  0.0000

>  <r_epik_State_Penalty> (1)
  0.0000

>  <r_epik_Charging_Adjusted_Penalty> (1)
0

>  <i_epik_Tot_Q> (1)
0

>  <i_epik_Tot_abs_Q> (1)
0

>  <s_lp_Force_Field> (1)
S-OPLS

>  <r_lp_Energy> (1)
29.1746

>  <b_lp_Chiralities_Consistent> (1)
1

$$$$
