14718041_2-ethyl-1-methylnaphthalene
                    3D
 Schrodinger Suite 2021-3.
 27 28  0  0  1  0            999 V2000
   -0.5571    1.4853    0.0295 C   0  0  0  0  0  0
   -0.0095    0.0523   -0.0920 C   0  0  0  0  0  0
    1.5038    0.0000    0.0126 C   0  0  0  0  0  0
    2.1820   -0.0053    1.2258 C   0  0  0  0  0  0
    3.6184   -0.0223    1.2336 C   0  0  0  0  0  0
    4.3764   -0.0402    2.4386 C   0  0  0  0  0  0
    5.7536   -0.0570    2.4203 C   0  0  0  0  0  0
    6.4568   -0.0556    1.1942 C   0  0  0  0  0  0
    5.7595   -0.0378    0.0091 C   0  0  0  0  0  0
    4.3400   -0.0211   -0.0040 C   0  0  0  0  0  0
    3.6119   -0.0034   -1.2207 C   0  0  0  0  0  0
    2.2419    0.0053   -1.2038 C   0  0  0  0  0  0
    1.4543    0.0105    2.5528 C   0  0  0  0  0  0
   -1.6472    1.5039   -0.0749 H   0  0  0  0  0  0
   -0.1282    2.1281   -0.7462 H   0  0  0  0  0  0
   -0.2989    1.9240    0.9986 H   0  0  0  0  0  0
   -0.4767   -0.5864    0.6648 H   0  0  0  0  0  0
   -0.3107   -0.3640   -1.0601 H   0  0  0  0  0  0
    3.8649   -0.0417    3.3940 H   0  0  0  0  0  0
    6.3053   -0.0713    3.3560 H   0  0  0  0  0  0
    7.5429   -0.0685    1.1923 H   0  0  0  0  0  0
    6.2869   -0.0367   -0.9416 H   0  0  0  0  0  0
    4.1556   -0.0021   -2.1619 H   0  0  0  0  0  0
    1.6922    0.0156   -2.1417 H   0  0  0  0  0  0
    1.7364    0.8882    3.1458 H   0  0  0  0  0  0
    1.7023   -0.8733    3.1526 H   0  0  0  0  0  0
    0.3715    0.0338    2.4365 H   0  0  0  0  0  0
  1  2  1  0  0  0
  1 14  1  0  0  0
  1 15  1  0  0  0
  1 16  1  0  0  0
  2  3  1  0  0  0
  2 17  1  0  0  0
  2 18  1  0  0  0
  3 12  1  0  0  0
  3  4  2  0  0  0
  4  5  1  0  0  0
  4 13  1  0  0  0
  5 10  1  0  0  0
  5  6  2  0  0  0
  6  7  1  0  0  0
  6 19  1  0  0  0
  7  8  2  0  0  0
  7 20  1  0  0  0
  8  9  1  0  0  0
  8 21  1  0  0  0
  9 10  2  0  0  0
  9 22  1  0  0  0
 10 11  1  0  0  0
 11 12  2  0  0  0
 11 23  1  0  0  0
 12 24  1  0  0  0
 13 25  1  0  0  0
 13 26  1  0  0  0
 13 27  1  0  0  0
M  END
>  <i_m_Spin_multiplicity> (1)
1

>  <s_j_Task> (1)
Single Point

>  <s_j_QM_Method> (1)
DFT(b3lyp-d3)

>  <s_j_QM_Basis> (1)
cc-pvtz(-f)

>  <i_j_Number_of_canonical_orbitals> (1)
414

>  <i_j_Geometry_convergence_category> (1)
3

>  <r_j_Gas_Phase_Energy> (1)
-504.013224810325

>  <r_j_Final_Energy> (1)
-504.013224810325

>  <r_j_HOMO> (1)
-0.218092289295901

>  <r_j_LUMO> (1)
-0.0489725521390857

>  <r_j_Polarizability> (1)
152.454812730048

>  <r_j_QM_Dipole_(debye)> (1)
0.650482754689408

>  <r_j_QM_Dipole_X_(debye)> (1)
-0.626088173412885

>  <r_j_QM_Dipole_Y_(debye)> (1)
0.0598476353890359

>  <r_j_QM_Dipole_Z_(debye)> (1)
0.16601106529138

>  <r_j_Lowest_Frequency_(cm-1)> (1)
89.037632032981

>  <r_j_Highest_Frequency_(cm-1)> (1)
3161.6514697867

>  <r_j_2nd_Lowest_Frequency_(cm-1)> (1)
106.979187021191

>  <i_j_Num_Negative_Frequencies> (1)
0

>  <r_j_Zero_Point_Energy_(kcal/mol)> (1)
144.914409320606

>  <r_j_Entropy_(cal/mol/K)_298.15K_1.00E+00atm> (1)
100.076185667378

>  <r_j_Enthalpy_(kcal/mol)_298.15K_1.00E+00atm> (1)
7.36903559476254

>  <r_j_Free_Energy_(kcal/mol)_298.15K_1.00E+00atm> (1)
-22.4686791619663

>  <r_j_Internal_Energy_(kcal/mol)_298.15K_1.00E+00atm> (1)
6.77655000593527

>  <r_j_Heat_Capacity_(cal/mol/K)_298.15K_1.00E+00atm> (1)
44.6709269869378

>  <r_j_ln(Q)_298.15K_1.00E+00atm> (1)
37.922743752197

>  <r_j_Total_Internal_Energy_(au)_298.15K_1.00E+00atm> (1)
-503.7714898779

>  <r_j_Total_Enthalpy_(au)_298.15K_1.00E+00atm> (1)
-503.770545692007

>  <r_j_Total_Free_Energy_(au)_298.15K_1.00E+00atm> (1)
-503.818095117448

>  <r_lp_tautomer_probability> (1)
1

>  <r_epik_Ionization_Penalty> (1)
  0.0000

>  <r_epik_Ionization_Penalty_Charging> (1)
  0.0000

>  <r_epik_Ionization_Penalty_Neutral> (1)
  0.0000

>  <r_epik_State_Penalty> (1)
  0.0000

>  <r_epik_Charging_Adjusted_Penalty> (1)
0

>  <i_epik_Tot_Q> (1)
0

>  <i_epik_Tot_abs_Q> (1)
0

>  <s_lp_Force_Field> (1)
S-OPLS

>  <r_lp_Energy> (1)
23.0272

>  <b_lp_Chiralities_Consistent> (1)
1

$$$$
