14778_Calcium Oxide
                    3D
 Schrodinger Suite 2021-3.
  2  1  0  0  1  0            999 V2000
    0.0000    0.0000    1.4836 O   0  0  0  0  0  0
    0.0000    0.0000   -0.5938 Ca  0  0  0  0  0  0
  1  2  2  0  0  0
M  END
>  <i_m_Spin_multiplicity> (1)
1

>  <s_j_Task> (1)
Single Point

>  <s_j_QM_Method> (1)
DFT(b3lyp-d3)

>  <s_j_QM_Basis> (1)
lacv3p**

>  <i_j_Number_of_canonical_orbitals> (1)
34

>  <i_j_Geometry_convergence_category> (1)
0

>  <r_j_Gas_Phase_Energy> (1)
-111.69181745095

>  <r_j_Final_Energy> (1)
-111.69181745095

>  <r_j_HOMO> (1)
-0.176299800558673

>  <r_j_LUMO> (1)
-0.113015787314078

>  <r_j_Polarizability> (1)
91.1636543258868

>  <r_j_QM_Dipole_(debye)> (1)
7.06762319867569

>  <r_j_QM_Dipole_X_(debye)> (1)
0

>  <r_j_QM_Dipole_Y_(debye)> (1)
0

>  <r_j_QM_Dipole_Z_(debye)> (1)
-7.06762319867569

>  <r_j_Lowest_Frequency_(cm-1)> (1)
634.060334869868

>  <r_j_Highest_Frequency_(cm-1)> (1)
634.060334869868

>  <r_j_2nd_Lowest_Frequency_(cm-1)> (1)
634.060334869868

>  <i_j_Num_Negative_Frequencies> (1)
0

>  <r_j_Zero_Point_Energy_(kcal/mol)> (1)
0.906434749743238

>  <r_j_Entropy_(cal/mol/K)_298.15K_1.00E+00atm> (1)
53.100975521716

>  <r_j_Enthalpy_(kcal/mol)_298.15K_1.00E+00atm> (1)
2.16290395681151

>  <r_j_Free_Energy_(kcal/mol)_298.15K_1.00E+00atm> (1)
-13.6691518949881

>  <r_j_Internal_Energy_(kcal/mol)_298.15K_1.00E+00atm> (1)
1.57041836798423

>  <r_j_Heat_Capacity_(cal/mol/K)_298.15K_1.00E+00atm> (1)
5.9285241144494

>  <r_j_ln(Q)_298.15K_1.00E+00atm> (1)
23.070859701489

>  <r_j_Total_Internal_Energy_(au)_298.15K_1.00E+00atm> (1)
-111.687870334235

>  <r_j_Total_Enthalpy_(au)_298.15K_1.00E+00atm> (1)
-111.686926148343

>  <r_j_Total_Free_Energy_(au)_298.15K_1.00E+00atm> (1)
-111.712156135472

$$$$
