14781_Hydroxyapatite
                    3D
 Schrodinger Suite 2021-3.
 21 12  0  0  1  0            999 V2000
    1.8719    2.9442    0.0000 O   0  5  1  0  0  0
    0.5719    1.6442    0.0000 O   0  5  0  0  0  0
   -0.3516    0.7293    0.0000 P   0  0  1  0  0  0
   -1.2665    1.6528    0.0000 O   0  0  0  0  0  0
   -1.2751   -0.1856    0.0000 O   0  5  0  0  0  0
    0.5633   -0.1942    0.0000 O   0  5  0  0  0  0
    0.5719   -2.2557    0.0000 O   0  5  0  0  0  0
   -0.3516   -3.1707    0.0000 P   0  0  1  0  0  0
   -1.2665   -2.2472    0.0000 O   0  0  0  0  0  0
   -1.2751   -4.0856    0.0000 O   0  5  0  0  0  0
    0.5633   -4.0942    0.0000 O   0  5  0  0  0  0
    0.5719    5.5442    0.0000 O   0  5  0  0  0  0
   -0.3516    4.6293    0.0000 P   0  0  1  0  0  0
   -1.2665    5.5528    0.0000 O   0  0  0  0  0  0
   -1.2751    3.7144    0.0000 O   0  5  0  0  0  0
    0.5633    3.7058    0.0000 O   0  5  0  0  0  0
    1.8719    1.6442    0.0000 Ca  0  2  0  0  0  0
   -2.5751   -0.1856    0.0000 Ca  0  2  0  0  0  0
    1.8633   -0.1942    0.0000 Ca  0  2  0  0  0  0
    1.8719   -2.2557    0.0000 Ca  0  2  0  0  0  0
   -1.2751   -5.3856    0.0000 Ca  0  2  0  0  0  0
  2  3  1  0  0  0
  3  4  2  0  0  0
  3  5  1  0  0  0
  3  6  1  0  0  0
  7  8  1  0  0  0
  8  9  2  0  0  0
  8 10  1  0  0  0
  8 11  1  0  0  0
 12 13  1  0  0  0
 13 14  2  0  0  0
 13 15  1  0  0  0
 13 16  1  0  0  0
M  END
>  <i_m_Spin_multiplicity> (1)
2

>  <s_j_Task> (1)
Single Point

>  <s_j_QM_Method> (1)
UDFT(b3lyp-d3)

>  <s_j_QM_Basis> (1)
non_standard

>  <i_j_Number_of_canonical_orbitals> (1)
455

>  <r_j_Gas_Phase_Energy> (1)
-2178.67126584952

>  <r_j_Final_Energy> (1)
-2178.67126584952

>  <r_j_alpha_HOMO> (1)
-0.128516914000777

>  <r_j_alpha_LUMO> (1)
-0.163846933960361

>  <r_j_beta_HOMO> (1)
-0.136455561577108

>  <r_j_beta_LUMO> (1)
-0.163921117631984

>  <r_j_Polarizability> (1)
676.121136497481

>  <r_j_QM_Dipole_(debye)> (1)
13.6134786418115

>  <r_j_QM_Dipole_X_(debye)> (1)
-1.31476412578704

>  <r_j_QM_Dipole_Y_(debye)> (1)
-13.5498411807889

>  <r_j_QM_Dipole_Z_(debye)> (1)
0

>  <r_j_Zero_Point_Energy_(kcal/mol)> (1)
59.0592685192231

>  <r_j_Entropy_(cal/mol/K)_298.15K_1.00E+00atm> (1)
90.9581096639949

>  <r_j_Enthalpy_(kcal/mol)_298.15K_1.00E+00atm> (1)
4.05221870952496

>  <r_j_Free_Energy_(kcal/mol)_298.15K_1.00E+00atm> (1)
-23.0669416867951

>  <r_j_Internal_Energy_(kcal/mol)_298.15K_1.00E+00atm> (1)
3.45973312069769

>  <r_j_Heat_Capacity_(cal/mol/K)_298.15K_1.00E+00atm> (1)
18.090189577661

>  <r_j_ln(Q)_298.15K_1.00E+00atm> (1)
38.9324940923074

>  <r_j_Total_Internal_Energy_(au)_298.15K_1.00E+00atm> (1)
-2178.57163547798

>  <r_j_Total_Enthalpy_(au)_298.15K_1.00E+00atm> (1)
-2178.57069129209

>  <r_j_Total_Free_Energy_(au)_298.15K_1.00E+00atm> (1)
-2178.61390842536

>  <r_j_S2_Value> (1)
0.90403822380074

>  <r_j_Lowest_Frequency_(cm-1)> (1)
-1452.84241694313

>  <r_j_Highest_Frequency_(cm-1)> (1)
2813.06506037315

>  <r_j_2nd_Lowest_Frequency_(cm-1)> (1)
-1450.73866344063

>  <i_j_Num_Negative_Frequencies> (1)
30

$$$$
