149804_3-Nitrobenzo[e]pyrene
                    3D
 Schrodinger Suite 2021-3.
 34 38  0  0  1  0            999 V2000
   -6.3738   -1.2478    0.0001 C   0  0  0  0  0  0
   -7.0822   -0.0393    0.0000 C   0  0  0  0  0  0
   -6.3939    1.1592   -0.0001 C   0  0  0  0  0  0
   -4.9822    1.2035   -0.0001 C   0  0  0  0  0  0
   -4.2628   -0.0196    0.0000 C   0  0  0  0  0  0
   -4.9922   -1.2305    0.0001 C   0  0  0  0  0  0
   -2.7980   -0.0121    0.0000 C   0  0  0  0  0  0
   -2.0858    1.2246    0.0000 C   0  0  0  0  0  0
   -0.6434    1.2474    0.0000 C   0  0  0  0  0  0
    0.0289   -0.0064    0.0000 C   0  0  0  0  0  0
   -0.6799   -1.2031    0.0000 C   0  0  0  0  0  0
   -2.0618   -1.2049    0.0000 C   0  0  0  0  0  0
    1.4977   -0.1598    0.0000 N   0  3  1  0  0  0
    1.9470   -1.3092   -0.0002 O   0  0  0  0  0  0
    2.2223    0.8387    0.0002 O   0  5  0  0  0  0
    0.0142    2.5248    0.0000 C   0  0  0  0  0  0
   -0.6957    3.6833    0.0000 C   0  0  0  0  0  0
   -2.1223    3.7017    0.0000 C   0  0  0  0  0  0
   -2.8246    2.4609    0.0000 C   0  0  0  0  0  0
   -4.2515    2.4709   -0.0001 C   0  0  0  0  0  0
   -4.9117    3.7079    0.0000 C   0  0  0  0  0  0
   -4.2133    4.9152    0.0001 C   0  0  0  0  0  0
   -2.8288    4.9165    0.0001 C   0  0  0  0  0  0
   -6.9041   -2.1950    0.0002 H   0  0  0  0  0  0
   -8.1680   -0.0407    0.0000 H   0  0  0  0  0  0
   -6.9647    2.0789   -0.0002 H   0  0  0  0  0  0
   -4.4707   -2.1789    0.0001 H   0  0  0  0  0  0
   -0.1279   -2.1329    0.0000 H   0  0  0  0  0  0
   -2.5615   -2.1637    0.0001 H   0  0  0  0  0  0
    1.0905    2.5518   -0.0001 H   0  0  0  0  0  0
   -0.1685    4.6336    0.0000 H   0  0  0  0  0  0
   -5.9936    3.7467    0.0000 H   0  0  0  0  0  0
   -4.7620    5.8520    0.0002 H   0  0  0  0  0  0
   -2.2744    5.8500    0.0001 H   0  0  0  0  0  0
  1  6  1  0  0  0
  1  2  2  0  0  0
  1 24  1  0  0  0
  2  3  1  0  0  0
  2 25  1  0  0  0
  3  4  2  0  0  0
  3 26  1  0  0  0
  4 20  1  0  0  0
  4  5  1  0  0  0
  5  6  2  0  0  0
  5  7  1  0  0  0
  6 27  1  0  0  0
  7 12  1  0  0  0
  7  8  2  0  0  0
  8 19  1  0  0  0
  8  9  1  0  0  0
  9 10  2  0  0  0
  9 16  1  0  0  0
 10 11  1  0  0  0
 10 13  1  0  0  0
 11 12  2  0  0  0
 11 28  1  0  0  0
 12 29  1  0  0  0
 13 14  2  0  0  0
 13 15  1  0  0  0
 16 17  2  0  0  0
 16 30  1  0  0  0
 17 18  1  0  0  0
 17 31  1  0  0  0
 18 23  1  0  0  0
 18 19  2  0  0  0
 19 20  1  0  0  0
 20 21  2  0  0  0
 21 22  1  0  0  0
 21 32  1  0  0  0
 22 23  2  0  0  0
 22 33  1  0  0  0
 23 34  1  0  0  0
M  END
>  <i_m_Spin_multiplicity> (1)
1

>  <s_j_Task> (1)
Single Point

>  <s_j_QM_Method> (1)
DFT(b3lyp-d3)

>  <s_j_QM_Basis> (1)
cc-pvtz(-f)

>  <i_j_Number_of_canonical_orbitals> (1)
606

>  <i_j_Geometry_convergence_category> (1)
0

>  <r_j_Gas_Phase_Energy> (1)
-974.230979357715

>  <r_j_Final_Energy> (1)
-974.230979357715

>  <r_j_HOMO> (1)
-0.218651779846115

>  <r_j_LUMO> (1)
-0.100850284471282

>  <r_j_Polarizability> (1)
266.371791099189

>  <r_j_QM_Dipole_(debye)> (1)
6.12122029358675

>  <r_j_QM_Dipole_X_(debye)> (1)
-5.95549981612276

>  <r_j_QM_Dipole_Y_(debye)> (1)
1.41469424723927

>  <r_j_QM_Dipole_Z_(debye)> (1)
9.80207543330366e-05

>  <r_j_Lowest_Frequency_(cm-1)> (1)
47.3492047640686

>  <r_j_Highest_Frequency_(cm-1)> (1)
3243.5061099112

>  <r_j_2nd_Lowest_Frequency_(cm-1)> (1)
65.0757720577784

>  <i_j_Num_Negative_Frequencies> (1)
0

>  <r_j_Zero_Point_Energy_(kcal/mol)> (1)
160.614370892862

>  <r_j_Entropy_(cal/mol/K)_298.15K_1.00E+00atm> (1)
120.202095958874

>  <r_j_Enthalpy_(kcal/mol)_298.15K_1.00E+00atm> (1)
9.95262599662444

>  <r_j_Free_Energy_(kcal/mol)_298.15K_1.00E+00atm> (1)
-25.8856289135137

>  <r_j_Internal_Energy_(kcal/mol)_298.15K_1.00E+00atm> (1)
9.36014040779717

>  <r_j_Heat_Capacity_(cal/mol/K)_298.15K_1.00E+00atm> (1)
64.0309921549519

>  <r_j_ln(Q)_298.15K_1.00E+00atm> (1)
43.6898878245291

>  <r_j_Total_Internal_Energy_(au)_298.15K_1.00E+00atm> (1)
-973.96010773039

>  <r_j_Total_Enthalpy_(au)_298.15K_1.00E+00atm> (1)
-973.959163544498

>  <r_j_Total_Free_Energy_(au)_298.15K_1.00E+00atm> (1)
-974.016275439415

>  <r_lp_tautomer_probability> (1)
1

>  <r_epik_Ionization_Penalty> (1)
  0.0000

>  <r_epik_Ionization_Penalty_Charging> (1)
  0.0000

>  <r_epik_Ionization_Penalty_Neutral> (1)
  0.0000

>  <r_epik_State_Penalty> (1)
  0.0000

>  <r_epik_Charging_Adjusted_Penalty> (1)
0

>  <i_epik_Tot_Q> (1)
0

>  <i_epik_Tot_abs_Q> (1)
2

>  <s_lp_Force_Field> (1)
S-OPLS

>  <r_lp_Energy> (1)
62.612958

>  <b_lp_Chiralities_Consistent> (1)
1

$$$$
