15026_2-methylfluorene
                    3D
 Schrodinger Suite 2021-3.
 26 28  0  0  1  0            999 V2000
   -0.0259   -0.0067    0.0003 C   0  0  0  0  0  0
    1.4850    0.0160    0.0001 C   0  0  0  0  0  0
    2.1924    1.2267   -0.0001 C   0  0  0  0  0  0
    3.5820    1.2176   -0.0003 C   0  0  0  0  0  0
    4.2898    0.0019   -0.0002 C   0  0  0  0  0  0
    3.5973   -1.2109   -0.0001 C   0  0  0  0  0  0
    2.2046   -1.1912    0.0000 C   0  0  0  0  0  0
    5.7279    0.2931   -0.0001 C   0  0  0  0  0  0
    6.8336   -0.5594    0.0000 C   0  0  0  0  0  0
    8.1132   -0.0017    0.0002 C   0  0  0  0  0  0
    8.2857    1.3865    0.0003 C   0  0  0  0  0  0
    7.1782    2.2421    0.0002 C   0  0  0  0  0  0
    5.9028    1.6918   -0.0001 C   0  0  0  0  0  0
    4.5529    2.3814   -0.0003 C   0  0  0  0  0  0
   -0.4442    1.0037    0.0009 H   0  0  0  0  0  0
   -0.4148   -0.5306    0.8813 H   0  0  0  0  0  0
   -0.4151   -0.5297   -0.8811 H   0  0  0  0  0  0
    1.6480    2.1685    0.0000 H   0  0  0  0  0  0
    4.1336   -2.1559   -0.0001 H   0  0  0  0  0  0
    1.6564   -2.1305    0.0001 H   0  0  0  0  0  0
    6.7016   -1.6378    0.0000 H   0  0  0  0  0  0
    8.9841   -0.6511    0.0004 H   0  0  0  0  0  0
    9.2888    1.8034    0.0005 H   0  0  0  0  0  0
    7.3184    3.3200    0.0003 H   0  0  0  0  0  0
    4.4218    3.0247   -0.8800 H   0  0  0  0  0  0
    4.4217    3.0248    0.8793 H   0  0  0  0  0  0
  1  2  1  0  0  0
  1 15  1  0  0  0
  1 16  1  0  0  0
  1 17  1  0  0  0
  2  7  1  0  0  0
  2  3  2  0  0  0
  3  4  1  0  0  0
  3 18  1  0  0  0
  4 14  1  0  0  0
  4  5  2  0  0  0
  5  6  1  0  0  0
  5  8  1  0  0  0
  6  7  2  0  0  0
  6 19  1  0  0  0
  7 20  1  0  0  0
  8 13  1  0  0  0
  8  9  2  0  0  0
  9 10  1  0  0  0
  9 21  1  0  0  0
 10 11  2  0  0  0
 10 22  1  0  0  0
 11 12  1  0  0  0
 11 23  1  0  0  0
 12 13  2  0  0  0
 12 24  1  0  0  0
 13 14  1  0  0  0
 14 25  1  0  0  0
 14 26  1  0  0  0
M  END
>  <i_m_Spin_multiplicity> (1)
1

>  <s_j_Task> (1)
Single Point

>  <s_j_QM_Method> (1)
DFT(b3lyp-d3)

>  <s_j_QM_Basis> (1)
cc-pvtz(-f)

>  <i_j_Number_of_canonical_orbitals> (1)
419

>  <i_j_Geometry_convergence_category> (1)
3

>  <r_j_Gas_Phase_Energy> (1)
-540.920847828349

>  <r_j_Final_Energy> (1)
-540.920847828349

>  <r_j_HOMO> (1)
-0.212261960020686

>  <r_j_LUMO> (1)
-0.0336317203327195

>  <r_j_Polarizability> (1)
162.291534444716

>  <r_j_QM_Dipole_(debye)> (1)
0.755275011468986

>  <r_j_QM_Dipole_X_(debye)> (1)
-0.622476922676086

>  <r_j_QM_Dipole_Y_(debye)> (1)
0.427741405973111

>  <r_j_QM_Dipole_Z_(debye)> (1)
0.000336602634599661

>  <r_j_Lowest_Frequency_(cm-1)> (1)
89.4270717304063

>  <r_j_Highest_Frequency_(cm-1)> (1)
3144.82306134499

>  <r_j_2nd_Lowest_Frequency_(cm-1)> (1)
150.279499317803

>  <i_j_Num_Negative_Frequencies> (1)
0

>  <r_j_Zero_Point_Energy_(kcal/mol)> (1)
134.425004422851

>  <r_j_Entropy_(cal/mol/K)_298.15K_1.00E+00atm> (1)
98.5213122477672

>  <r_j_Enthalpy_(kcal/mol)_298.15K_1.00E+00atm> (1)
7.08779699083566

>  <r_j_Free_Energy_(kcal/mol)_298.15K_1.00E+00atm> (1)
-22.2863322558361

>  <r_j_Internal_Energy_(kcal/mol)_298.15K_1.00E+00atm> (1)
6.49531140200838

>  <r_j_Heat_Capacity_(cal/mol/K)_298.15K_1.00E+00atm> (1)
43.6074012707531

>  <r_j_ln(Q)_298.15K_1.00E+00atm> (1)
37.6149777751526

>  <r_j_Total_Internal_Energy_(au)_298.15K_1.00E+00atm> (1)
-540.696277009004

>  <r_j_Total_Enthalpy_(au)_298.15K_1.00E+00atm> (1)
-540.695332823111

>  <r_j_Total_Free_Energy_(au)_298.15K_1.00E+00atm> (1)
-540.742143478011

>  <r_lp_tautomer_probability> (1)
1

>  <r_epik_Ionization_Penalty> (1)
  0.0000

>  <r_epik_Ionization_Penalty_Charging> (1)
  0.0000

>  <r_epik_Ionization_Penalty_Neutral> (1)
  0.0000

>  <r_epik_State_Penalty> (1)
  0.0000

>  <r_epik_Charging_Adjusted_Penalty> (1)
0

>  <i_epik_Tot_Q> (1)
0

>  <i_epik_Tot_abs_Q> (1)
0

>  <s_lp_Force_Field> (1)
S-OPLS

>  <r_lp_Energy> (1)
7.95337

>  <b_lp_Chiralities_Consistent> (1)
1

$$$$
