15102861_1,1,3,4-tetramethylcyclohexane
                    3D
 Schrodinger Suite 2021-3.
 30 30  0  0  1  0            999 V2000
   -0.0445   -0.1195   -0.0553 C   0  0  0  0  0  0
    1.4850   -0.0133   -0.0057 C   0  0  0  0  0  0
    2.0144    0.7044   -1.2616 C   0  0  0  0  0  0
    3.5429    0.8278   -1.2686 C   0  0  0  0  0  0
    4.1061    1.5248   -0.0083 C   0  0  0  0  0  0
    3.5354    0.8130    1.2403 C   0  0  0  0  0  0
    1.9997    0.6849    1.2757 C   0  0  0  0  0  0
    1.5671   -0.0367    2.5597 C   0  0  0  0  0  0
    5.6394    1.4038   -0.0019 C   0  0  0  0  0  0
    3.7378    3.0216   -0.0006 C   0  0  0  0  0  0
   -0.5046    0.8736    0.0223 H   0  0  0  0  0  0
   -0.4445   -0.7374    0.7533 H   0  0  0  0  0  0
   -0.3729   -0.5629   -1.0017 H   0  0  0  0  0  0
    1.9013   -1.0345   -0.0062 H   0  0  0  0  0  0
    1.6848    0.1634   -2.1576 H   0  0  0  0  0  0
    1.5532    1.6998   -1.3237 H   0  0  0  0  0  0
    3.9750   -0.1814   -1.3285 H   0  0  0  0  0  0
    3.8782    1.3619   -2.1672 H   0  0  0  0  0  0
    3.9616   -0.2005    1.2884 H   0  0  0  0  0  0
    3.8813    1.3323    2.1444 H   0  0  0  0  0  0
    1.5644    1.6955    1.2961 H   0  0  0  0  0  0
    1.9089   -1.0793    2.5530 H   0  0  0  0  0  0
    0.4809   -0.0414    2.6863 H   0  0  0  0  0  0
    1.9993    0.4472    3.4422 H   0  0  0  0  0  0
    6.0687    1.8791    0.8877 H   0  0  0  0  0  0
    6.0753    1.8882   -0.8834 H   0  0  0  0  0  0
    5.9541    0.3539   -0.0061 H   0  0  0  0  0  0
    4.1409    3.5129    0.8922 H   0  0  0  0  0  0
    2.6577    3.1894   -0.0085 H   0  0  0  0  0  0
    4.1566    3.5268   -0.8784 H   0  0  0  0  0  0
  1  2  1  0  0  0
  1 11  1  0  0  0
  1 12  1  0  0  0
  1 13  1  0  0  0
  2  7  1  0  0  0
  2  3  1  0  0  0
  2 14  1  0  0  0
  3  4  1  0  0  0
  3 15  1  0  0  0
  3 16  1  0  0  0
  4  5  1  0  0  0
  4 17  1  0  0  0
  4 18  1  0  0  0
  5  6  1  0  0  0
  5  9  1  0  0  0
  5 10  1  0  0  0
  6  7  1  0  0  0
  6 19  1  0  0  0
  6 20  1  0  0  0
  7  8  1  0  0  0
  7 21  1  0  0  0
  8 22  1  0  0  0
  8 23  1  0  0  0
  8 24  1  0  0  0
  9 25  1  0  0  0
  9 26  1  0  0  0
  9 27  1  0  0  0
 10 28  1  0  0  0
 10 29  1  0  0  0
 10 30  1  0  0  0
M  END
>  <i_m_Spin_multiplicity> (1)
1

>  <s_j_Task> (1)
Single Point

>  <s_j_QM_Method> (1)
DFT(b3lyp-d3)

>  <s_j_QM_Basis> (1)
cc-pvtz(-f)

>  <i_j_Number_of_canonical_orbitals> (1)
406

>  <i_j_Geometry_convergence_category> (1)
0

>  <r_j_Gas_Phase_Energy> (1)
-393.295759458015

>  <r_j_Final_Energy> (1)
-393.295759458015

>  <r_j_HOMO> (1)
-0.285531189929212

>  <r_j_LUMO> (1)
0.032631150685449

>  <r_j_Polarizability> (1)
117.301470340431

>  <r_j_QM_Dipole_(debye)> (1)
0.0692611273949902

>  <r_j_QM_Dipole_X_(debye)> (1)
-0.0464619338345385

>  <r_j_QM_Dipole_Y_(debye)> (1)
-0.00131189700340312

>  <r_j_QM_Dipole_Z_(debye)> (1)
-0.0513485286900461

>  <r_j_Lowest_Frequency_(cm-1)> (1)
107.958718879781

>  <r_j_Highest_Frequency_(cm-1)> (1)
3063.24683816401

>  <r_j_2nd_Lowest_Frequency_(cm-1)> (1)
164.386759247907

>  <i_j_Num_Negative_Frequencies> (1)
0

>  <r_j_Zero_Point_Energy_(kcal/mol)> (1)
176.563661347483

>  <r_j_Entropy_(cal/mol/K)_298.15K_1.00E+00atm> (1)
96.5866821840516

>  <r_j_Enthalpy_(kcal/mol)_298.15K_1.00E+00atm> (1)
7.2644027816183

>  <r_j_Free_Energy_(kcal/mol)_298.15K_1.00E+00atm> (1)
-21.5329165115567

>  <r_j_Internal_Energy_(kcal/mol)_298.15K_1.00E+00atm> (1)
6.67191719279103

>  <r_j_Heat_Capacity_(cal/mol/K)_298.15K_1.00E+00atm> (1)
44.4291331929864

>  <r_j_ln(Q)_298.15K_1.00E+00atm> (1)
36.3433590919527

>  <r_j_Total_Internal_Energy_(au)_298.15K_1.00E+00atm> (1)
-393.003754974736

>  <r_j_Total_Enthalpy_(au)_298.15K_1.00E+00atm> (1)
-393.002810788844

>  <r_j_Total_Free_Energy_(au)_298.15K_1.00E+00atm> (1)
-393.048702238566

>  <r_lp_tautomer_probability> (1)
1

>  <r_epik_Ionization_Penalty> (1)
  0.0000

>  <r_epik_Ionization_Penalty_Charging> (1)
  0.0000

>  <r_epik_Ionization_Penalty_Neutral> (1)
  0.0000

>  <r_epik_State_Penalty> (1)
  0.0000

>  <r_epik_Charging_Adjusted_Penalty> (1)
0

>  <i_epik_Tot_Q> (1)
0

>  <i_epik_Tot_abs_Q> (1)
0

>  <s_lp_Force_Field> (1)
S-OPLS

>  <r_lp_Energy> (1)
19.1387

>  <b_lp_Chiralities_Consistent> (1)
1

$$$$
