15109_2,6-dimethoxybenzoic acid
                    3D
 Schrodinger Suite 2021-3.
 22 22  0  0  1  0            999 V2000
   -0.6972    1.1598    0.0885 C   0  0  0  0  0  0
    0.0412   -0.0341    0.0713 O   0  0  0  0  0  0
    1.4182    0.0486    0.0377 C   0  0  0  0  0  0
    2.0846   -1.1834    0.0029 C   0  0  0  0  0  0
    3.4849   -1.1459   -0.0306 C   0  0  0  0  0  0
    4.2016    0.0609   -0.0307 C   0  0  0  0  0  0
    3.5003    1.2659    0.0048 C   0  0  0  0  0  0
    2.1059    1.2720    0.0395 C   0  0  0  0  0  0
    4.1007   -2.3799   -0.0665 O   0  0  0  0  0  0
    5.5035   -2.4231   -0.1018 C   0  0  0  0  0  0
    1.3011   -2.5400    0.0023 C   0  0  0  0  0  0
    1.0919   -3.0045    1.1424 O   0  0  0  0  0  0
    1.0025   -2.9542   -1.1370 O   0  5  0  0  0  0
   -1.7512    0.8686    0.1030 H   0  0  0  0  0  0
   -0.5144    1.7812   -0.8030 H   0  0  0  0  0  0
   -0.4881    1.7726    0.9804 H   0  0  0  0  0  0
    5.2857    0.0736   -0.0579 H   0  0  0  0  0  0
    4.0446    2.2075    0.0059 H   0  0  0  0  0  0
    1.5757    2.2177    0.0679 H   0  0  0  0  0  0
    5.7776   -3.4814   -0.1257 H   0  0  0  0  0  0
    5.9620   -1.9593    0.7866 H   0  0  0  0  0  0
    5.9182   -1.9305   -0.9962 H   0  0  0  0  0  0
  1  2  1  0  0  0
  1 14  1  0  0  0
  1 15  1  0  0  0
  1 16  1  0  0  0
  2  3  1  0  0  0
  3  8  1  0  0  0
  3  4  2  0  0  0
  4  5  1  0  0  0
  4 11  1  0  0  0
  5  6  2  0  0  0
  5  9  1  0  0  0
  6  7  1  0  0  0
  6 17  1  0  0  0
  7  8  2  0  0  0
  7 18  1  0  0  0
  8 19  1  0  0  0
  9 10  1  0  0  0
 10 20  1  0  0  0
 10 21  1  0  0  0
 10 22  1  0  0  0
 11 12  2  0  0  0
 11 13  1  0  0  0
M  END
>  <i_m_Spin_multiplicity> (1)
1

>  <s_j_Task> (1)
Single Point

>  <s_j_QM_Method> (1)
DFT(b3lyp-d3)

>  <s_j_QM_Basis> (1)
cc-pvtz(-f)

>  <i_j_Number_of_canonical_orbitals> (1)
374

>  <i_j_Geometry_convergence_category> (1)
0

>  <r_j_Gas_Phase_Energy> (1)
-649.53085505311

>  <r_j_Final_Energy> (1)
-649.53085505311

>  <r_j_HOMO> (1)
-0.047957819428011

>  <r_j_LUMO> (1)
0.127408089374498

>  <r_j_Polarizability> (1)
126.845566785176

>  <r_j_QM_Dipole_(debye)> (1)
9.11724244397757

>  <r_j_QM_Dipole_X_(debye)> (1)
4.56220731969835

>  <r_j_QM_Dipole_Y_(debye)> (1)
7.89365056498957

>  <r_j_QM_Dipole_Z_(debye)> (1)
-0.0255912523458827

>  <r_j_Lowest_Frequency_(cm-1)> (1)
67.9388926840456

>  <r_j_Highest_Frequency_(cm-1)> (1)
3146.97368468973

>  <r_j_2nd_Lowest_Frequency_(cm-1)> (1)
85.2847261102775

>  <i_j_Num_Negative_Frequencies> (1)
0

>  <r_j_Zero_Point_Energy_(kcal/mol)> (1)
103.694939202174

>  <r_j_Entropy_(cal/mol/K)_298.15K_1.00E+00atm> (1)
106.75093013087

>  <r_j_Enthalpy_(kcal/mol)_298.15K_1.00E+00atm> (1)
8.05189422778303

>  <r_j_Free_Energy_(kcal/mol)_298.15K_1.00E+00atm> (1)
-23.7758955907359

>  <r_j_Internal_Energy_(kcal/mol)_298.15K_1.00E+00atm> (1)
7.45940863895575

>  <r_j_Heat_Capacity_(cal/mol/K)_298.15K_1.00E+00atm> (1)
44.2156164738149

>  <r_j_ln(Q)_298.15K_1.00E+00atm> (1)
40.1290698695243

>  <r_j_Total_Internal_Energy_(au)_298.15K_1.00E+00atm> (1)
-649.353719323443

>  <r_j_Total_Enthalpy_(au)_298.15K_1.00E+00atm> (1)
-649.352775137551

>  <r_j_Total_Free_Energy_(au)_298.15K_1.00E+00atm> (1)
-649.403495949491

>  <r_epik_Ionization_Penalty> (1)
  0.0005

>  <r_epik_Ionization_Penalty_Charging> (1)
  0.0005

>  <r_epik_Ionization_Penalty_Neutral> (1)
  0.0000

>  <r_epik_State_Penalty> (1)
  0.0003

>  <r_epik_Charging_Adjusted_Penalty> (1)
0.000780133

>  <i_epik_Tot_Q> (1)
-1

>  <i_epik_Tot_abs_Q> (1)
1

>  <s_lp_Force_Field> (1)
S-OPLS

>  <r_lp_Energy> (1)
36.1089

>  <b_lp_Chiralities_Consistent> (1)
1

$$$$
