15204_2,3-dimethoxybenzoic acid
                    3D
 Schrodinger Suite 2021-3.
 22 22  0  0  1  0            999 V2000
   -0.6512    1.1907    0.0273 C   0  0  0  0  0  0
    0.0580   -0.0240    0.0474 O   0  0  0  0  0  0
    1.4386    0.0441    0.0380 C   0  0  0  0  0  0
    2.1606    1.2386    0.0194 C   0  0  0  0  0  0
    3.5605    1.1806    0.0170 C   0  0  0  0  0  0
    4.2123   -0.0441    0.0304 C   0  0  0  0  0  0
    3.5054   -1.2595    0.0168 C   0  0  0  0  0  0
    2.1063   -1.2026    0.0405 C   0  0  0  0  0  0
    1.3157   -2.3295    0.1274 O   0  0  0  0  0  0
    1.0227   -2.9218   -1.1408 C   0  0  0  0  0  0
    4.3425   -2.5743   -0.0350 C   0  0  0  0  0  0
    3.9129   -3.4778   -0.7953 O   0  0  0  0  0  0
    5.3858   -2.5422    0.6573 O   0  5  0  0  0  0
   -1.7129    0.9281    0.0344 H   0  0  0  0  0  0
   -0.4383    1.7853   -0.8749 H   0  0  0  0  0  0
   -0.4346    1.8160    0.9074 H   0  0  0  0  0  0
    1.6566    2.1988    0.0135 H   0  0  0  0  0  0
    4.1307    2.1080    0.0125 H   0  0  0  0  0  0
    5.2950   -0.1113    0.0705 H   0  0  0  0  0  0
    0.4129   -3.8070   -0.9317 H   0  0  0  0  0  0
    1.9599   -3.2179   -1.6217 H   0  0  0  0  0  0
    0.4388   -2.2299   -1.7680 H   0  0  0  0  0  0
  1  2  1  0  0  0
  1 14  1  0  0  0
  1 15  1  0  0  0
  1 16  1  0  0  0
  2  3  1  0  0  0
  3  8  1  0  0  0
  3  4  2  0  0  0
  4  5  1  0  0  0
  4 17  1  0  0  0
  5  6  2  0  0  0
  5 18  1  0  0  0
  6  7  1  0  0  0
  6 19  1  0  0  0
  7  8  2  0  0  0
  7 11  1  0  0  0
  8  9  1  0  0  0
  9 10  1  0  0  0
 10 20  1  0  0  0
 10 21  1  0  0  0
 10 22  1  0  0  0
 11 12  2  0  0  0
 11 13  1  0  0  0
M  END
>  <i_m_Spin_multiplicity> (1)
1

>  <s_j_Task> (1)
Single Point

>  <s_j_QM_Method> (1)
DFT(b3lyp-d3)

>  <s_j_QM_Basis> (1)
cc-pvtz(-f)

>  <i_j_Number_of_canonical_orbitals> (1)
374

>  <i_j_Geometry_convergence_category> (1)
3

>  <r_j_Gas_Phase_Energy> (1)
-649.538029676241

>  <r_j_Final_Energy> (1)
-649.538029676241

>  <r_j_HOMO> (1)
-0.061828067814661

>  <r_j_LUMO> (1)
0.116623175738396

>  <r_j_Polarizability> (1)
123.340420426191

>  <r_j_QM_Dipole_(debye)> (1)
11.2951837283236

>  <r_j_QM_Dipole_X_(debye)> (1)
-7.93854937885873

>  <r_j_QM_Dipole_Y_(debye)> (1)
7.96544531397633

>  <r_j_QM_Dipole_Z_(debye)> (1)
-1.0546516799683

>  <r_j_Lowest_Frequency_(cm-1)> (1)
69.2235165916221

>  <r_j_Highest_Frequency_(cm-1)> (1)
3146.63896913271

>  <r_j_2nd_Lowest_Frequency_(cm-1)> (1)
81.4266354715703

>  <i_j_Num_Negative_Frequencies> (1)
0

>  <r_j_Zero_Point_Energy_(kcal/mol)> (1)
103.971694363874

>  <r_j_Entropy_(cal/mol/K)_298.15K_1.00E+00atm> (1)
105.111853274967

>  <r_j_Enthalpy_(kcal/mol)_298.15K_1.00E+00atm> (1)
7.91411616042758

>  <r_j_Free_Energy_(kcal/mol)_298.15K_1.00E+00atm> (1)
-23.4249828935038

>  <r_j_Internal_Energy_(kcal/mol)_298.15K_1.00E+00atm> (1)
7.32163057160031

>  <r_j_Heat_Capacity_(cal/mol/K)_298.15K_1.00E+00atm> (1)
43.9820100890041

>  <r_j_ln(Q)_298.15K_1.00E+00atm> (1)
39.5367977470467

>  <r_j_Total_Internal_Energy_(au)_298.15K_1.00E+00atm> (1)
-649.360672472476

>  <r_j_Total_Enthalpy_(au)_298.15K_1.00E+00atm> (1)
-649.359728286583

>  <r_j_Total_Free_Energy_(au)_298.15K_1.00E+00atm> (1)
-649.409670320213

>  <r_epik_Ionization_Penalty> (1)
  0.0005

>  <r_epik_Ionization_Penalty_Charging> (1)
  0.0005

>  <r_epik_Ionization_Penalty_Neutral> (1)
  0.0000

>  <r_epik_State_Penalty> (1)
  0.0003

>  <r_epik_Charging_Adjusted_Penalty> (1)
0.000888309

>  <i_epik_Tot_Q> (1)
-1

>  <i_epik_Tot_abs_Q> (1)
1

>  <s_lp_Force_Field> (1)
S-OPLS

>  <r_lp_Energy> (1)
36.0257

>  <b_lp_Chiralities_Consistent> (1)
1

$$$$
