15287_1-Ethoxy-2-propanol
                    3D
 Schrodinger Suite 2021-3.
 19 18  0  0  1  0            999 V2000
   -2.1043    0.9997   -0.0469 C   0  0  0  0  0  0
   -0.6009    1.2151   -0.0719 C   0  0  0  0  0  0
    0.0299   -0.0485    0.0784 O   0  0  0  0  0  0
    1.4492    0.0083    0.0597 C   0  0  0  0  0  0
    1.9483   -1.4338    0.0485 C   0  0  0  0  0  0
    3.4651   -1.5162   -0.0374 C   0  0  0  0  0  0
    1.4129   -2.1164   -1.0794 O   0  0  0  0  0  0
   -2.6311    1.9523   -0.1585 H   0  0  0  0  0  0
   -2.4077    0.5411    0.8985 H   0  0  0  0  0  0
   -2.4074    0.3368   -0.8626 H   0  0  0  0  0  0
   -0.2891    1.6852   -1.0197 H   0  0  0  0  0  0
   -0.2910    1.8911    0.7424 H   0  0  0  0  0  0
    1.8031    0.5240   -0.8484 H   0  0  0  0  0  0
    1.8332    0.5530    0.9379 H   0  0  0  0  0  0
    1.6045   -1.9109    0.9826 H   0  0  0  0  0  0
    3.9356   -1.0419    0.8298 H   0  0  0  0  0  0
    3.8201   -1.0235   -0.9483 H   0  0  0  0  0  0
    3.7772   -2.5629   -0.0746 H   0  0  0  0  0  0
    0.4704   -1.8928   -1.0952 H   0  0  0  0  0  0
  1  2  1  0  0  0
  1  8  1  0  0  0
  1  9  1  0  0  0
  1 10  1  0  0  0
  2  3  1  0  0  0
  2 11  1  0  0  0
  2 12  1  0  0  0
  3  4  1  0  0  0
  4  5  1  0  0  0
  4 13  1  0  0  0
  4 14  1  0  0  0
  5  6  1  0  0  0
  5  7  1  0  0  0
  5 15  1  0  0  0
  6 16  1  0  0  0
  6 17  1  0  0  0
  6 18  1  0  0  0
  7 19  1  0  0  0
M  END
>  <i_m_Spin_multiplicity> (1)
1

>  <s_j_Task> (1)
Single Point

>  <s_j_QM_Method> (1)
DFT(b3lyp-d3)

>  <s_j_QM_Basis> (1)
cc-pvtz(-f)

>  <i_j_Number_of_canonical_orbitals> (1)
269

>  <i_j_Geometry_convergence_category> (1)
0

>  <r_j_Gas_Phase_Energy> (1)
-348.337425488997

>  <r_j_Final_Energy> (1)
-348.337425488997

>  <r_j_HOMO> (1)
-0.270067027339085

>  <r_j_LUMO> (1)
0.0310923767768456

>  <r_j_Polarizability> (1)
72.4147018923033

>  <r_j_QM_Dipole_(debye)> (1)
2.2789681030156

>  <r_j_QM_Dipole_X_(debye)> (1)
-0.433255866476876

>  <r_j_QM_Dipole_Y_(debye)> (1)
2.06658666334536

>  <r_j_QM_Dipole_Z_(debye)> (1)
0.857440686933495

>  <r_j_Lowest_Frequency_(cm-1)> (1)
84.4744076783103

>  <r_j_Highest_Frequency_(cm-1)> (1)
3725.81168130713

>  <r_j_2nd_Lowest_Frequency_(cm-1)> (1)
130.153660146785

>  <i_j_Num_Negative_Frequencies> (1)
0

>  <r_j_Zero_Point_Energy_(kcal/mol)> (1)
106.337036645413

>  <r_j_Entropy_(cal/mol/K)_298.15K_1.00E+00atm> (1)
88.6731779352372

>  <r_j_Enthalpy_(kcal/mol)_298.15K_1.00E+00atm> (1)
5.94663296682984

>  <r_j_Free_Energy_(kcal/mol)_298.15K_1.00E+00atm> (1)
-20.4912750345611

>  <r_j_Internal_Energy_(kcal/mol)_298.15K_1.00E+00atm> (1)
5.35414737800256

>  <r_j_Heat_Capacity_(cal/mol/K)_298.15K_1.00E+00atm> (1)
30.9806816065029

>  <r_j_ln(Q)_298.15K_1.00E+00atm> (1)
34.585271643687

>  <r_j_Total_Internal_Energy_(au)_298.15K_1.00E+00atm> (1)
-348.159434256413

>  <r_j_Total_Enthalpy_(au)_298.15K_1.00E+00atm> (1)
-348.158490070521

>  <r_j_Total_Free_Energy_(au)_298.15K_1.00E+00atm> (1)
-348.200621558993

>  <r_lp_tautomer_probability> (1)
1

>  <r_epik_Ionization_Penalty> (1)
  0.0000

>  <r_epik_Ionization_Penalty_Charging> (1)
  0.0000

>  <r_epik_Ionization_Penalty_Neutral> (1)
  0.0000

>  <r_epik_State_Penalty> (1)
  0.0000

>  <r_epik_Charging_Adjusted_Penalty> (1)
0

>  <i_epik_Tot_Q> (1)
0

>  <i_epik_Tot_abs_Q> (1)
0

>  <s_lp_Force_Field> (1)
S-OPLS

>  <r_lp_Energy> (1)
-0.905849

>  <b_lp_Chiralities_Consistent> (1)
1

$$$$
