15286_Propylene glycol n-propyl ether
                    3D
 Schrodinger Suite 2021-3.
 22 21  0  0  1  0            999 V2000
   -2.8083    2.3952   -0.1115 C   0  0  0  0  0  0
   -2.0602    1.0649    0.0104 C   0  0  0  0  0  0
   -0.5490    1.2477   -0.0118 C   0  0  0  0  0  0
    0.0609   -0.0279    0.1079 O   0  0  0  0  0  0
    1.4810    0.0030    0.0803 C   0  0  0  0  0  0
    1.9516   -1.4479    0.0357 C   0  0  0  0  0  0
    3.4656   -1.5590   -0.0650 C   0  0  0  0  0  0
    1.3932   -2.0965   -1.1010 O   0  0  0  0  0  0
   -3.8911    2.2413   -0.0943 H   0  0  0  0  0  0
   -2.5601    2.9075   -1.0480 H   0  0  0  0  0  0
   -2.5554    3.0711    0.7134 H   0  0  0  0  0  0
   -2.3338    0.5551    0.9414 H   0  0  0  0  0  0
   -2.3396    0.3928   -0.8097 H   0  0  0  0  0  0
   -0.2335    1.7371   -0.9497 H   0  0  0  0  0  0
   -0.2289    1.9023    0.8172 H   0  0  0  0  0  0
    1.8381    0.5308   -0.8195 H   0  0  0  0  0  0
    1.8810    0.5221    0.9667 H   0  0  0  0  0  0
    1.6059   -1.9370    0.9630 H   0  0  0  0  0  0
    3.9530   -1.1118    0.8072 H   0  0  0  0  0  0
    3.8228   -1.0557   -0.9691 H   0  0  0  0  0  0
    3.7559   -2.6109   -0.1256 H   0  0  0  0  0  0
    0.4556   -1.8524   -1.1046 H   0  0  0  0  0  0
  1  2  1  0  0  0
  1  9  1  0  0  0
  1 10  1  0  0  0
  1 11  1  0  0  0
  2  3  1  0  0  0
  2 12  1  0  0  0
  2 13  1  0  0  0
  3  4  1  0  0  0
  3 14  1  0  0  0
  3 15  1  0  0  0
  4  5  1  0  0  0
  5  6  1  0  0  0
  5 16  1  0  0  0
  5 17  1  0  0  0
  6  7  1  0  0  0
  6  8  1  0  0  0
  6 18  1  0  0  0
  7 19  1  0  0  0
  7 20  1  0  0  0
  7 21  1  0  0  0
  8 22  1  0  0  0
M  END
>  <i_m_Spin_multiplicity> (1)
1

>  <s_j_Task> (1)
Single Point

>  <s_j_QM_Method> (1)
DFT(b3lyp-d3)

>  <s_j_QM_Basis> (1)
cc-pvtz(-f)

>  <i_j_Number_of_canonical_orbitals> (1)
309

>  <i_j_Geometry_convergence_category> (1)
0

>  <r_j_Gas_Phase_Energy> (1)
-387.666602197994

>  <r_j_Final_Energy> (1)
-387.666602197994

>  <r_j_HOMO> (1)
-0.26925435229101

>  <r_j_LUMO> (1)
0.0317174589831297

>  <r_j_Polarizability> (1)
84.595880091171

>  <r_j_QM_Dipole_(debye)> (1)
2.27370429665354

>  <r_j_QM_Dipole_X_(debye)> (1)
-0.474947310622917

>  <r_j_QM_Dipole_Y_(debye)> (1)
2.03089133571053

>  <r_j_QM_Dipole_Z_(debye)> (1)
0.905337872448035

>  <r_j_Lowest_Frequency_(cm-1)> (1)
68.6730650760613

>  <r_j_Highest_Frequency_(cm-1)> (1)
3724.5878144397

>  <r_j_2nd_Lowest_Frequency_(cm-1)> (1)
114.13043607374

>  <i_j_Num_Negative_Frequencies> (1)
0

>  <r_j_Zero_Point_Energy_(kcal/mol)> (1)
124.224242563717

>  <r_j_Entropy_(cal/mol/K)_298.15K_1.00E+00atm> (1)
94.9630555195826

>  <r_j_Enthalpy_(kcal/mol)_298.15K_1.00E+00atm> (1)
6.72522694762679

>  <r_j_Free_Energy_(kcal/mol)_298.15K_1.00E+00atm> (1)
-21.5880080555368

>  <r_j_Internal_Energy_(kcal/mol)_298.15K_1.00E+00atm> (1)
6.13274135879952

>  <r_j_Heat_Capacity_(cal/mol/K)_298.15K_1.00E+00atm> (1)
35.7411155109337

>  <r_j_ln(Q)_298.15K_1.00E+00atm> (1)
36.4363428623919

>  <r_j_Total_Internal_Energy_(au)_298.15K_1.00E+00atm> (1)
-387.458865119663

>  <r_j_Total_Enthalpy_(au)_298.15K_1.00E+00atm> (1)
-387.457920933771

>  <r_j_Total_Free_Energy_(au)_298.15K_1.00E+00atm> (1)
-387.503040946068

>  <r_lp_tautomer_probability> (1)
1

>  <r_epik_Ionization_Penalty> (1)
  0.0000

>  <r_epik_Ionization_Penalty_Charging> (1)
  0.0000

>  <r_epik_Ionization_Penalty_Neutral> (1)
  0.0000

>  <r_epik_State_Penalty> (1)
  0.0000

>  <r_epik_Charging_Adjusted_Penalty> (1)
0

>  <i_epik_Tot_Q> (1)
0

>  <i_epik_Tot_abs_Q> (1)
0

>  <s_lp_Force_Field> (1)
S-OPLS

>  <r_lp_Energy> (1)
0.003016

>  <b_lp_Chiralities_Consistent> (1)
1

$$$$
