152802_Hexadecenoic acid
                    3D
 Schrodinger Suite 2021-3.
 47 46  0  0  1  0            999 V2000
   -6.3063    4.4756    0.1521 C   0  0  0  0  0  0
   -4.7766    4.4018    0.1357 C   0  0  0  0  0  0
   -4.2429    2.9675    0.0400 C   0  0  0  0  0  0
   -2.7125    2.8891    0.0239 C   0  0  0  0  0  0
   -2.1683    1.4589   -0.0674 C   0  0  0  0  0  0
   -0.6369    1.3960   -0.0780 C   0  0  0  0  0  0
   -0.0753   -0.0279   -0.1582 C   0  0  0  0  0  0
    1.4568   -0.0716   -0.1554 C   0  0  0  0  0  0
    2.0387   -1.4884   -0.2150 C   0  0  0  0  0  0
    3.5713   -1.5108   -0.1876 C   0  0  0  0  0  0
    4.1659   -2.9247   -0.2132 C   0  0  0  0  0  0
    5.7027   -2.9657   -0.2230 C   0  0  0  0  0  0
    6.3694   -2.4027    1.0486 C   0  0  0  0  0  0
    7.8698   -2.5170    1.0202 C   0  0  0  0  0  0
    8.6170   -3.2486    1.8511 C   0  0  0  0  0  0
   10.1558   -3.3452    1.7671 C   0  0  0  0  0  0
   10.6701   -4.0925    2.6401 O   0  0  0  0  0  0
   10.7023   -2.6773    0.8511 O   0  5  0  0  0  0
   -6.6604    5.5098    0.2212 H   0  0  0  0  0  0
   -6.7179    3.9241    1.0054 H   0  0  0  0  0  0
   -6.7315    4.0372   -0.7583 H   0  0  0  0  0  0
   -4.3888    4.9881   -0.7087 H   0  0  0  0  0  0
   -4.3757    4.8758    1.0422 H   0  0  0  0  0  0
   -4.6295    2.3794    0.8850 H   0  0  0  0  0  0
   -4.6426    2.4911   -0.8670 H   0  0  0  0  0  0
   -2.3281    3.4777   -0.8216 H   0  0  0  0  0  0
   -2.3158    3.3695    0.9299 H   0  0  0  0  0  0
   -2.5512    0.8691    0.7779 H   0  0  0  0  0  0
   -2.5602    0.9765   -0.9746 H   0  0  0  0  0  0
   -0.2558    1.9844   -0.9252 H   0  0  0  0  0  0
   -0.2492    1.8862    0.8266 H   0  0  0  0  0  0
   -0.4578   -0.6177    0.6875 H   0  0  0  0  0  0
   -0.4545   -0.5199   -1.0657 H   0  0  0  0  0  0
    1.8380    0.5135   -1.0048 H   0  0  0  0  0  0
    1.8299    0.4326    0.7476 H   0  0  0  0  0  0
    1.6520   -2.0746    0.6315 H   0  0  0  0  0  0
    1.6779   -1.9946   -1.1226 H   0  0  0  0  0  0
    3.9596   -0.9397   -1.0438 H   0  0  0  0  0  0
    3.9175   -0.9816    0.7089 H   0  0  0  0  0  0
    3.7956   -3.4833    0.6594 H   0  0  0  0  0  0
    3.7803   -3.4532   -1.0977 H   0  0  0  0  0  0
    6.0353   -4.0031   -0.3510 H   0  0  0  0  0  0
    6.0773   -2.4180   -1.0999 H   0  0  0  0  0  0
    6.0755   -1.3471    1.1649 H   0  0  0  0  0  0
    5.9684   -2.9336    1.9240 H   0  0  0  0  0  0
    8.4074   -1.9660    0.2463 H   0  0  0  0  0  0
    8.1464   -3.8283    2.6502 H   0  0  0  0  0  0
  1  2  1  0  0  0
  1 19  1  0  0  0
  1 20  1  0  0  0
  1 21  1  0  0  0
  2  3  1  0  0  0
  2 22  1  0  0  0
  2 23  1  0  0  0
  3  4  1  0  0  0
  3 24  1  0  0  0
  3 25  1  0  0  0
  4  5  1  0  0  0
  4 26  1  0  0  0
  4 27  1  0  0  0
  5  6  1  0  0  0
  5 28  1  0  0  0
  5 29  1  0  0  0
  6  7  1  0  0  0
  6 30  1  0  0  0
  6 31  1  0  0  0
  7  8  1  0  0  0
  7 32  1  0  0  0
  7 33  1  0  0  0
  8  9  1  0  0  0
  8 34  1  0  0  0
  8 35  1  0  0  0
  9 10  1  0  0  0
  9 36  1  0  0  0
  9 37  1  0  0  0
 10 11  1  0  0  0
 10 38  1  0  0  0
 10 39  1  0  0  0
 11 12  1  0  0  0
 11 40  1  0  0  0
 11 41  1  0  0  0
 12 13  1  0  0  0
 12 42  1  0  0  0
 12 43  1  0  0  0
 13 14  1  0  0  0
 13 44  1  0  0  0
 13 45  1  0  0  0
 14 15  2  0  0  0
 14 46  1  0  0  0
 15 16  1  0  0  0
 15 47  1  0  0  0
 16 17  2  0  0  0
 16 18  1  0  0  0
M  END
>  <s_lp_Force_Field> (1)
S-OPLS

>  <r_lp_Energy> (1)
10.330776

>  <b_lp_Chiralities_Consistent> (1)
1

>  <r_epik_Ionization_Penalty> (1)
  0.0030

>  <r_epik_Ionization_Penalty_Charging> (1)
  0.0030

>  <r_epik_Ionization_Penalty_Neutral> (1)
  0.0000

>  <r_epik_State_Penalty> (1)
  0.0021

>  <r_epik_Charging_Adjusted_Penalty> (1)
0.00507066606519717

>  <i_epik_Tot_Q> (1)
-1

>  <i_epik_Tot_abs_Q> (1)
1

>  <i_m_Spin_multiplicity> (1)
1

>  <s_j_Task> (1)
Single Point

>  <s_j_QM_Method> (1)
DFT(b3lyp-d3)

>  <s_j_QM_Basis> (1)
6-31g**

>  <i_j_Number_of_canonical_orbitals> (1)
415

>  <i_j_Geometry_convergence_category> (1)
0

>  <r_j_Gas_Phase_Energy> (1)
-777.747078194143

>  <r_j_Final_Energy> (1)
-777.747078194143

>  <r_j_HOMO> (1)
-0.00943125492209174

>  <r_j_LUMO> (1)
0.128585864126886

>  <r_j_Polarizability> (1)
185.866604438663

>  <r_j_QM_Dipole_(debye)> (1)
37.9380193003914

>  <r_j_QM_Dipole_X_(debye)> (1)
-35.2012197507105

>  <r_j_QM_Dipole_Y_(debye)> (1)
13.0031846191718

>  <r_j_QM_Dipole_Z_(debye)> (1)
-5.57535884574179

>  <r_j_Lowest_Frequency_(cm-1)> (1)
15.6190267045842

>  <r_j_Highest_Frequency_(cm-1)> (1)
3133.11420443816

>  <r_j_2nd_Lowest_Frequency_(cm-1)> (1)
19.2437443172699

>  <i_j_Num_Negative_Frequencies> (1)
0

>  <r_j_Zero_Point_Energy_(kcal/mol)> (1)
267.459792779686

>  <r_j_Entropy_(cal/mol/K)_298.15K_1.00E+00atm> (1)
152.157019449815

>  <r_j_Enthalpy_(kcal/mol)_298.15K_1.00E+00atm> (1)
13.9891496398252

>  <r_j_Free_Energy_(kcal/mol)_298.15K_1.00E+00atm> (1)
-31.3764657091371

>  <r_j_Internal_Energy_(kcal/mol)_298.15K_1.00E+00atm> (1)
13.396664050998

>  <r_j_Heat_Capacity_(cal/mol/K)_298.15K_1.00E+00atm> (1)
78.35868969127

>  <r_j_ln(Q)_298.15K_1.00E+00atm> (1)
52.9573483318666

>  <r_j_Total_Internal_Energy_(au)_298.15K_1.00E+00atm> (1)
-777.299504937869

>  <r_j_Total_Enthalpy_(au)_298.15K_1.00E+00atm> (1)
-777.298560751976

>  <r_j_Total_Free_Energy_(au)_298.15K_1.00E+00atm> (1)
-777.370855462284

$$$$
