15301_Trans-1,3-pentadiene
                    3D
 Schrodinger Suite 2021-3.
 13 12  0  0  1  0            999 V2000
   -0.0151    0.0243    0.0000 C   0  0  0  0  0  0
    1.4923   -0.0213    0.0000 C   0  0  0  0  0  0
    2.2213   -1.1490    0.0000 C   0  0  0  0  0  0
    3.6761   -1.1836    0.0000 C   0  0  0  0  0  0
    4.4127   -2.3042    0.0000 C   0  0  0  0  0  0
   -0.3869    1.0522    0.0000 H   0  0  0  0  0  0
   -0.4321   -0.4774    0.8815 H   0  0  0  0  0  0
   -0.4321   -0.4774   -0.8815 H   0  0  0  0  0  0
    2.0182    0.9334    0.0000 H   0  0  0  0  0  0
    1.7115   -2.1142    0.0000 H   0  0  0  0  0  0
    4.1798   -0.2163    0.0000 H   0  0  0  0  0  0
    3.9499   -3.2879    0.0000 H   0  0  0  0  0  0
    5.4973   -2.2744    0.0000 H   0  0  0  0  0  0
  1  2  1  0  0  0
  1  6  1  0  0  0
  1  7  1  0  0  0
  1  8  1  0  0  0
  2  3  2  0  0  0
  2  9  1  0  0  0
  3  4  1  0  0  0
  3 10  1  0  0  0
  4  5  2  0  0  0
  4 11  1  0  0  0
  5 12  1  0  0  0
  5 13  1  0  0  0
M  END
>  <i_m_Spin_multiplicity> (1)
1

>  <s_j_Task> (1)
Single Point

>  <s_j_QM_Method> (1)
DFT(b3lyp-d3)

>  <s_j_QM_Basis> (1)
cc-pvtz(-f)

>  <i_j_Number_of_canonical_orbitals> (1)
185

>  <i_j_Geometry_convergence_category> (1)
0

>  <r_j_Gas_Phase_Energy> (1)
-195.385471712043

>  <r_j_Final_Energy> (1)
-195.385471712043

>  <r_j_HOMO> (1)
-0.233754345865885

>  <r_j_LUMO> (1)
-0.0382110109960246

>  <r_j_Polarizability> (1)
66.3599603802521

>  <r_j_QM_Dipole_(debye)> (1)
0.638693412087139

>  <r_j_QM_Dipole_X_(debye)> (1)
-0.566114968214333

>  <r_j_QM_Dipole_Y_(debye)> (1)
0.295707824028254

>  <r_j_QM_Dipole_Z_(debye)> (1)
-1.46857631774947e-05

>  <r_j_Lowest_Frequency_(cm-1)> (1)
-74.1489867859253

>  <r_j_Highest_Frequency_(cm-1)> (1)
3180.60031657152

>  <r_j_2nd_Lowest_Frequency_(cm-1)> (1)
179.129535954761

>  <i_j_Num_Negative_Frequencies> (1)
1

>  <r_j_Zero_Point_Energy_(kcal/mol)> (1)
70.4311223219268

>  <r_j_Entropy_(cal/mol/K)_298.15K_1.00E+00atm> (1)
72.4503086300392

>  <r_j_Enthalpy_(kcal/mol)_298.15K_1.00E+00atm> (1)
3.96993242858812

>  <r_j_Free_Energy_(kcal/mol)_298.15K_1.00E+00atm> (1)
-17.6311270894581

>  <r_j_Internal_Energy_(kcal/mol)_298.15K_1.00E+00atm> (1)
3.37744683976084

>  <r_j_Heat_Capacity_(cal/mol/K)_298.15K_1.00E+00atm> (1)
18.9754890432175

>  <r_j_ln(Q)_298.15K_1.00E+00atm> (1)
29.7579003134168

>  <r_j_Total_Internal_Energy_(au)_298.15K_1.00E+00atm> (1)
-195.267850269355

>  <r_j_Total_Enthalpy_(au)_298.15K_1.00E+00atm> (1)
-195.266906083463

>  <r_j_Total_Free_Energy_(au)_298.15K_1.00E+00atm> (1)
-195.301329563188

>  <r_lp_tautomer_probability> (1)
1

>  <r_epik_Ionization_Penalty> (1)
  0.0000

>  <r_epik_Ionization_Penalty_Charging> (1)
  0.0000

>  <r_epik_Ionization_Penalty_Neutral> (1)
  0.0000

>  <r_epik_State_Penalty> (1)
  0.0000

>  <r_epik_Charging_Adjusted_Penalty> (1)
0

>  <i_epik_Tot_Q> (1)
0

>  <i_epik_Tot_abs_Q> (1)
0

>  <s_lp_Force_Field> (1)
S-OPLS

>  <r_lp_Energy> (1)
0.065496

>  <b_lp_Chiralities_Consistent> (1)
1

$$$$
