1531_Amino Methyl Propanediol
                    3D
 Schrodinger Suite 2021-3.
 19 18  0  0  1  0            999 V2000
   -0.5400   -0.6787   -1.3280 C   0  0  0  0  0  0
    0.0528    0.0690   -0.1385 C   0  0  0  0  0  0
    1.5920   -0.0010   -0.1180 C   0  0  0  0  0  0
    1.9064   -1.3593    0.1728 O   0  0  0  0  0  0
   -0.4468    1.5141   -0.0274 C   0  0  0  0  0  0
   -0.0815    1.9565    1.2743 O   0  0  0  0  0  0
   -0.3732   -0.6330    1.1584 N   0  3  1  0  0  0
   -0.2782   -0.1522   -2.2496 H   0  0  0  0  0  0
   -1.6324   -0.7278   -1.2724 H   0  0  0  0  0  0
   -0.1319   -1.6898   -1.3910 H   0  0  0  0  0  0
    1.9626    0.3105   -1.1023 H   0  0  0  0  0  0
    1.9872    0.6844    0.6423 H   0  0  0  0  0  0
    2.8603   -1.4694    0.2793 H   0  0  0  0  0  0
    0.0268    2.1070   -0.8210 H   0  0  0  0  0  0
   -1.5349    1.5470   -0.1813 H   0  0  0  0  0  0
   -0.3961    2.8569    1.4285 H   0  0  0  0  0  0
   -0.2950    0.0572    1.9211 H   0  0  0  0  0  0
    0.2884   -1.4125    1.3050 H   0  0  0  0  0  0
   -1.3318   -0.9864    1.1205 H   0  0  0  0  0  0
  1  2  1  0  0  0
  1  8  1  0  0  0
  1  9  1  0  0  0
  1 10  1  0  0  0
  2  3  1  0  0  0
  2  5  1  0  0  0
  2  7  1  0  0  0
  3  4  1  0  0  0
  3 11  1  0  0  0
  3 12  1  0  0  0
  4 13  1  0  0  0
  5  6  1  0  0  0
  5 14  1  0  0  0
  5 15  1  0  0  0
  6 16  1  0  0  0
  7 17  1  0  0  0
  7 18  1  0  0  0
  7 19  1  0  0  0
M  END
>  <i_m_Spin_multiplicity> (1)
1

>  <s_j_Task> (1)
Single Point

>  <s_j_QM_Method> (1)
DFT(b3lyp-d3)

>  <s_j_QM_Basis> (1)
cc-pvtz(-f)

>  <i_j_Number_of_canonical_orbitals> (1)
267

>  <i_j_Geometry_convergence_category> (1)
3

>  <r_j_Gas_Phase_Energy> (1)
-364.768596899648

>  <r_j_Final_Energy> (1)
-364.768596899648

>  <r_j_HOMO> (1)
-0.450478079170596

>  <r_j_LUMO> (1)
-0.159871365348574

>  <r_j_Polarizability> (1)
61.6147664287354

>  <r_j_QM_Dipole_(debye)> (1)
2.11272982020529

>  <r_j_QM_Dipole_X_(debye)> (1)
-1.59022945396841

>  <r_j_QM_Dipole_Y_(debye)> (1)
-0.0842348357363606

>  <r_j_QM_Dipole_Z_(debye)> (1)
1.38841710928831

>  <r_j_Lowest_Frequency_(cm-1)> (1)
153.26617019408

>  <r_j_Highest_Frequency_(cm-1)> (1)
3779.76289142456

>  <r_j_2nd_Lowest_Frequency_(cm-1)> (1)
174.57570895029

>  <i_j_Num_Negative_Frequencies> (1)
0

>  <r_j_Zero_Point_Energy_(kcal/mol)> (1)
108.941620011947

>  <r_j_Entropy_(cal/mol/K)_298.15K_1.00E+00atm> (1)
85.6747638669477

>  <r_j_Enthalpy_(kcal/mol)_298.15K_1.00E+00atm> (1)
5.77131854706896

>  <r_j_Free_Energy_(kcal/mol)_298.15K_1.00E+00atm> (1)
-19.7726122998615

>  <r_j_Internal_Energy_(kcal/mol)_298.15K_1.00E+00atm> (1)
5.17883295824168

>  <r_j_Heat_Capacity_(cal/mol/K)_298.15K_1.00E+00atm> (1)
31.8745603171312

>  <r_j_ln(Q)_298.15K_1.00E+00atm> (1)
33.372309255653

>  <r_j_Total_Internal_Energy_(au)_298.15K_1.00E+00atm> (1)
-364.586734380553

>  <r_j_Total_Enthalpy_(au)_298.15K_1.00E+00atm> (1)
-364.58579019466

>  <r_j_Total_Free_Energy_(au)_298.15K_1.00E+00atm> (1)
-364.626497039845

>  <r_epik_Ionization_Penalty> (1)
  0.0492

>  <r_epik_Ionization_Penalty_Charging> (1)
  0.0492

>  <r_epik_Ionization_Penalty_Neutral> (1)
  0.0000

>  <r_epik_State_Penalty> (1)
  0.0420

>  <r_epik_Charging_Adjusted_Penalty> (1)
0.0911433

>  <i_epik_Tot_Q> (1)
1

>  <i_epik_Tot_abs_Q> (1)
1

>  <s_lp_Force_Field> (1)
S-OPLS

>  <r_lp_Energy> (1)
4.60097

>  <b_lp_Chiralities_Consistent> (1)
1

$$$$
