15413_Methyl tert-butyl ether
                    3D
 Schrodinger Suite 2021-3.
 18 17  0  0  1  0            999 V2000
   -0.5592   -0.7398    1.2662 C   0  0  0  0  0  0
   -0.0316   -0.0462    0.0000 C   0  0  0  0  0  0
   -0.5592   -0.7398   -1.2662 C   0  0  0  0  0  0
   -0.4357    1.4311    0.0000 C   0  0  0  0  0  0
    1.4083    0.0058    0.0000 O   0  0  0  0  0  0
    2.1108   -1.2211   -0.0001 C   0  0  0  0  0  0
   -1.6472   -0.6388    1.3295 H   0  0  0  0  0  0
   -0.1158   -0.2834    2.1565 H   0  0  0  0  0  0
   -0.3285   -1.8093    1.2737 H   0  0  0  0  0  0
   -0.3284   -1.8094   -1.2736 H   0  0  0  0  0  0
   -0.1157   -0.2835   -2.1564 H   0  0  0  0  0  0
   -1.6471   -0.6388   -1.3295 H   0  0  0  0  0  0
   -1.5246    1.5386    0.0000 H   0  0  0  0  0  0
   -0.0322    1.9296   -0.8859 H   0  0  0  0  0  0
   -0.0322    1.9297    0.8859 H   0  0  0  0  0  0
    3.1737   -0.9651    0.0001 H   0  0  0  0  0  0
    1.9062   -1.8319   -0.8911 H   0  0  0  0  0  0
    1.9061   -1.8322    0.8908 H   0  0  0  0  0  0
  1  2  1  0  0  0
  1  7  1  0  0  0
  1  8  1  0  0  0
  1  9  1  0  0  0
  2  3  1  0  0  0
  2  4  1  0  0  0
  2  5  1  0  0  0
  3 10  1  0  0  0
  3 11  1  0  0  0
  3 12  1  0  0  0
  4 13  1  0  0  0
  4 14  1  0  0  0
  4 15  1  0  0  0
  5  6  1  0  0  0
  6 16  1  0  0  0
  6 17  1  0  0  0
  6 18  1  0  0  0
M  END
>  <i_m_Spin_multiplicity> (1)
1

>  <s_j_Task> (1)
Single Point

>  <s_j_QM_Method> (1)
DFT(b3lyp-d3)

>  <s_j_QM_Basis> (1)
cc-pvtz(-f)

>  <i_j_Number_of_canonical_orbitals> (1)
245

>  <i_j_Geometry_convergence_category> (1)
0

>  <r_j_Gas_Phase_Energy> (1)
-273.088259220435

>  <r_j_Final_Energy> (1)
-273.088259220435

>  <r_j_HOMO> (1)
-0.258305087437507

>  <r_j_LUMO> (1)
0.024408109535169

>  <r_j_Polarizability> (1)
66.7717877955116

>  <r_j_QM_Dipole_(debye)> (1)
1.18247506200217

>  <r_j_QM_Dipole_X_(debye)> (1)
-0.660305266796607

>  <r_j_QM_Dipole_Y_(debye)> (1)
-0.980940456513048

>  <r_j_QM_Dipole_Z_(debye)> (1)
-0.000218342995365644

>  <r_j_Lowest_Frequency_(cm-1)> (1)
122.067065633486

>  <r_j_Highest_Frequency_(cm-1)> (1)
3071.83567294778

>  <r_j_2nd_Lowest_Frequency_(cm-1)> (1)
257.084991171778

>  <i_j_Num_Negative_Frequencies> (1)
0

>  <r_j_Zero_Point_Energy_(kcal/mol)> (1)
102.601083043107

>  <r_j_Entropy_(cal/mol/K)_298.15K_1.00E+00atm> (1)
81.9741066539939

>  <r_j_Enthalpy_(kcal/mol)_298.15K_1.00E+00atm> (1)
5.34920141271762

>  <r_j_Free_Energy_(kcal/mol)_298.15K_1.00E+00atm> (1)
-19.0913784861707

>  <r_j_Internal_Energy_(kcal/mol)_298.15K_1.00E+00atm> (1)
4.75671582389034

>  <r_j_Heat_Capacity_(cal/mol/K)_298.15K_1.00E+00atm> (1)
28.7376521178257

>  <r_j_ln(Q)_298.15K_1.00E+00atm> (1)
32.2225195788455

>  <r_j_Total_Internal_Energy_(au)_298.15K_1.00E+00atm> (1)
-272.917173676711

>  <r_j_Total_Enthalpy_(au)_298.15K_1.00E+00atm> (1)
-272.916229490819

>  <r_j_Total_Free_Energy_(au)_298.15K_1.00E+00atm> (1)
-272.955178034334

>  <r_lp_tautomer_probability> (1)
1

>  <r_epik_Ionization_Penalty> (1)
  0.0000

>  <r_epik_Ionization_Penalty_Charging> (1)
  0.0000

>  <r_epik_Ionization_Penalty_Neutral> (1)
  0.0000

>  <r_epik_State_Penalty> (1)
  0.0000

>  <r_epik_Charging_Adjusted_Penalty> (1)
0

>  <i_epik_Tot_Q> (1)
0

>  <i_epik_Tot_abs_Q> (1)
0

>  <s_lp_Force_Field> (1)
S-OPLS

>  <r_lp_Energy> (1)
1.415298

>  <b_lp_Chiralities_Consistent> (1)
1

$$$$
