15431_Ethylcyclopentane
                    3D
 Schrodinger Suite 2021-3.
 21 21  0  0  1  0            999 V2000
   -0.0779    0.0618    0.0527 C   0  0  0  0  0  0
    1.4530   -0.0007    0.0126 C   0  0  0  0  0  0
    2.0102   -1.4262   -0.0334 C   0  0  0  0  0  0
    1.6190   -2.2366   -1.2909 C   0  0  0  0  0  0
    2.7101   -3.3353   -1.4470 C   0  0  0  0  0  0
    3.8241   -2.9752   -0.4241 C   0  0  0  0  0  0
    3.5462   -1.5120   -0.0427 C   0  0  0  0  0  0
   -0.4347    1.0950    0.1162 H   0  0  0  0  0  0
   -0.4703   -0.4805    0.9210 H   0  0  0  0  0  0
   -0.5188   -0.3874   -0.8435 H   0  0  0  0  0  0
    1.8210    0.5502   -0.8648 H   0  0  0  0  0  0
    1.8617    0.5158    0.8915 H   0  0  0  0  0  0
    1.6481   -1.9684    0.8548 H   0  0  0  0  0  0
    0.6089   -2.6520   -1.2250 H   0  0  0  0  0  0
    1.6281   -1.5667   -2.1608 H   0  0  0  0  0  0
    2.3091   -4.3360   -1.2576 H   0  0  0  0  0  0
    3.1022   -3.3468   -2.4690 H   0  0  0  0  0  0
    3.7316   -3.6059    0.4683 H   0  0  0  0  0  0
    4.8317   -3.1320   -0.8216 H   0  0  0  0  0  0
    3.9413   -0.8349   -0.8135 H   0  0  0  0  0  0
    3.9978   -1.2185    0.9112 H   0  0  0  0  0  0
  1  2  1  0  0  0
  1  8  1  0  0  0
  1  9  1  0  0  0
  1 10  1  0  0  0
  2  3  1  0  0  0
  2 11  1  0  0  0
  2 12  1  0  0  0
  3  7  1  0  0  0
  3  4  1  0  0  0
  3 13  1  0  0  0
  4  5  1  0  0  0
  4 14  1  0  0  0
  4 15  1  0  0  0
  5  6  1  0  0  0
  5 16  1  0  0  0
  5 17  1  0  0  0
  6  7  1  0  0  0
  6 18  1  0  0  0
  6 19  1  0  0  0
  7 20  1  0  0  0
  7 21  1  0  0  0
M  END
>  <i_m_Spin_multiplicity> (1)
1

>  <s_j_Task> (1)
Single Point

>  <s_j_QM_Method> (1)
DFT(b3lyp-d3)

>  <s_j_QM_Basis> (1)
cc-pvtz(-f)

>  <i_j_Number_of_canonical_orbitals> (1)
285

>  <i_j_Geometry_convergence_category> (1)
3

>  <r_j_Gas_Phase_Energy> (1)
-275.293747173506

>  <r_j_Final_Energy> (1)
-275.293747173506

>  <r_j_HOMO> (1)
-0.315070331691328

>  <r_j_LUMO> (1)
0.0189911539887377

>  <r_j_Polarizability> (1)
81.7727687613537

>  <r_j_QM_Dipole_(debye)> (1)
0.0659453162967508

>  <r_j_QM_Dipole_X_(debye)> (1)
0.0192246270780451

>  <r_j_QM_Dipole_Y_(debye)> (1)
0.000593502838549224

>  <r_j_QM_Dipole_Z_(debye)> (1)
0.0630780961156029

>  <r_j_Lowest_Frequency_(cm-1)> (1)
127.816691398436

>  <r_j_Highest_Frequency_(cm-1)> (1)
3050.01226067032

>  <r_j_2nd_Lowest_Frequency_(cm-1)> (1)
138.984796694669

>  <i_j_Num_Negative_Frequencies> (1)
0

>  <r_j_Zero_Point_Energy_(kcal/mol)> (1)
123.357214102553

>  <r_j_Entropy_(cal/mol/K)_298.15K_1.00E+00atm> (1)
83.2384904475473

>  <r_j_Enthalpy_(kcal/mol)_298.15K_1.00E+00atm> (1)
5.22202571853347

>  <r_j_Free_Energy_(kcal/mol)_298.15K_1.00E+00atm> (1)
-19.5955302084028

>  <r_j_Internal_Energy_(kcal/mol)_298.15K_1.00E+00atm> (1)
4.62954012970619

>  <r_j_Heat_Capacity_(cal/mol/K)_298.15K_1.00E+00atm> (1)
28.499113111564

>  <r_j_ln(Q)_298.15K_1.00E+00atm> (1)
33.0734292578978

>  <r_j_Total_Internal_Energy_(au)_298.15K_1.00E+00atm> (1)
-275.089787296642

>  <r_j_Total_Enthalpy_(au)_298.15K_1.00E+00atm> (1)
-275.088843110749

>  <r_j_Total_Free_Energy_(au)_298.15K_1.00E+00atm> (1)
-275.128392403809

>  <r_lp_tautomer_probability> (1)
1

>  <r_epik_Ionization_Penalty> (1)
  0.0000

>  <r_epik_Ionization_Penalty_Charging> (1)
  0.0000

>  <r_epik_Ionization_Penalty_Neutral> (1)
  0.0000

>  <r_epik_State_Penalty> (1)
  0.0000

>  <r_epik_Charging_Adjusted_Penalty> (1)
0

>  <i_epik_Tot_Q> (1)
0

>  <i_epik_Tot_abs_Q> (1)
0

>  <s_lp_Force_Field> (1)
S-OPLS

>  <r_lp_Energy> (1)
7.469383

>  <b_lp_Chiralities_Consistent> (1)
1

$$$$
