154901_9,10-dinitroanthracene
                    3D
 Schrodinger Suite 2021-3.
 28 30  0  0  1  0            999 V2000
   -0.6822    3.6702    0.0946 C   0  0  0  0  0  0
   -2.1038    3.6691    0.0960 C   0  0  0  0  0  0
   -2.8015    2.4939    0.0506 C   0  0  0  0  0  0
   -2.1155    1.2389    0.0069 C   0  0  0  0  0  0
   -0.6706    1.2398    0.0059 C   0  0  0  0  0  0
    0.0154    2.4950    0.0485 C   0  0  0  0  0  0
   -0.0142   -0.0016   -0.0012 C   0  0  0  0  0  0
   -0.6690   -1.2437   -0.0073 C   0  0  0  0  0  0
    0.0185   -2.4983   -0.0470 C   0  0  0  0  0  0
   -0.6776   -3.6744   -0.0897 C   0  0  0  0  0  0
   -2.0993   -3.6751   -0.0897 C   0  0  0  0  0  0
   -2.7986   -2.5008   -0.0471 C   0  0  0  0  0  0
   -2.1142   -1.2446   -0.0072 C   0  0  0  0  0  0
   -2.7708   -0.0032   -0.0001 C   0  0  0  0  0  0
   -4.2470   -0.0024    0.0000 N   0  3  1  0  0  0
   -4.8139   -0.5719    0.9306 O   0  0  0  0  0  0
   -4.8118    0.5677   -0.9317 O   0  5  0  0  0  0
    1.4618    0.0004   -0.0028 N   0  3  1  0  0  0
    2.0295   -0.5648    0.9300 O   0  0  0  0  0  0
    2.0249    0.5665   -0.9378 O   0  5  0  0  0  0
   -0.1463    4.6133    0.1309 H   0  0  0  0  0  0
   -2.6408    4.6116    0.1338 H   0  0  0  0  0  0
   -3.8836    2.5088    0.0425 H   0  0  0  0  0  0
    1.0974    2.5097    0.0384 H   0  0  0  0  0  0
    1.1005   -2.5117   -0.0375 H   0  0  0  0  0  0
   -0.1406   -4.6169   -0.1227 H   0  0  0  0  0  0
   -2.6351   -4.6184   -0.1228 H   0  0  0  0  0  0
   -3.8806   -2.5171   -0.0373 H   0  0  0  0  0  0
  1  6  1  0  0  0
  1  2  2  0  0  0
  1 21  1  0  0  0
  2  3  1  0  0  0
  2 22  1  0  0  0
  3  4  2  0  0  0
  3 23  1  0  0  0
  4 14  1  0  0  0
  4  5  1  0  0  0
  5  6  2  0  0  0
  5  7  1  0  0  0
  6 24  1  0  0  0
  7  8  2  0  0  0
  7 18  1  0  0  0
  8 13  1  0  0  0
  8  9  1  0  0  0
  9 10  2  0  0  0
  9 25  1  0  0  0
 10 11  1  0  0  0
 10 26  1  0  0  0
 11 12  2  0  0  0
 11 27  1  0  0  0
 12 13  1  0  0  0
 12 28  1  0  0  0
 13 14  2  0  0  0
 14 15  1  0  0  0
 15 16  2  0  0  0
 15 17  1  0  0  0
 18 19  2  0  0  0
 18 20  1  0  0  0
M  END
>  <i_m_Spin_multiplicity> (1)
1

>  <s_j_Task> (1)
Single Point

>  <s_j_QM_Method> (1)
DFT(b3lyp-d3)

>  <s_j_QM_Basis> (1)
cc-pvtz(-f)

>  <i_j_Number_of_canonical_orbitals> (1)
520

>  <i_j_Geometry_convergence_category> (1)
1

>  <r_j_Gas_Phase_Energy> (1)
-948.83366611096

>  <r_j_Final_Energy> (1)
-948.83366611096

>  <r_j_HOMO> (1)
-0.237657809784971

>  <r_j_LUMO> (1)
-0.121775665257288

>  <r_j_Polarizability> (1)
202.472012956665

>  <r_j_QM_Dipole_(debye)> (1)
0.0173986191095419

>  <r_j_QM_Dipole_X_(debye)> (1)
0.0103156777502725

>  <r_j_QM_Dipole_Y_(debye)> (1)
-0.00580779336458749

>  <r_j_QM_Dipole_Z_(debye)> (1)
0.012750226496251

>  <r_j_Lowest_Frequency_(cm-1)> (1)
57.8756311504535

>  <r_j_Highest_Frequency_(cm-1)> (1)
3187.22250306335

>  <r_j_2nd_Lowest_Frequency_(cm-1)> (1)
99.0920757822894

>  <i_j_Num_Negative_Frequencies> (1)
0

>  <r_j_Zero_Point_Energy_(kcal/mol)> (1)
124.37766946931

>  <r_j_Entropy_(cal/mol/K)_298.15K_1.00E+00atm> (1)
118.100017547489

>  <r_j_Enthalpy_(kcal/mol)_298.15K_1.00E+00atm> (1)
9.58609251398261

>  <r_j_Free_Energy_(kcal/mol)_298.15K_1.00E+00atm> (1)
-25.6254277178013

>  <r_j_Internal_Energy_(kcal/mol)_298.15K_1.00E+00atm> (1)
8.99360692515534

>  <r_j_Heat_Capacity_(cal/mol/K)_298.15K_1.00E+00atm> (1)
57.4831290529746

>  <r_j_ln(Q)_298.15K_1.00E+00atm> (1)
43.2507190065542

>  <r_j_Total_Internal_Energy_(au)_298.15K_1.00E+00atm> (1)
-948.621125451782

>  <r_j_Total_Enthalpy_(au)_298.15K_1.00E+00atm> (1)
-948.62018126589

>  <r_j_Total_Free_Energy_(au)_298.15K_1.00E+00atm> (1)
-948.676294395516

>  <r_lp_tautomer_probability> (1)
1

>  <r_epik_Ionization_Penalty> (1)
  0.0000

>  <r_epik_Ionization_Penalty_Charging> (1)
  0.0000

>  <r_epik_Ionization_Penalty_Neutral> (1)
  0.0000

>  <r_epik_State_Penalty> (1)
  0.0000

>  <r_epik_Charging_Adjusted_Penalty> (1)
0

>  <i_epik_Tot_Q> (1)
0

>  <i_epik_Tot_abs_Q> (1)
4

>  <s_lp_Force_Field> (1)
S-OPLS

>  <r_lp_Energy> (1)
81.0964

>  <b_lp_Chiralities_Consistent> (1)
1

$$$$
