15508_Isobutylcyclohexane
                    3D
 Schrodinger Suite 2021-3.
 30 30  0  0  1  0            999 V2000
   -0.4804   -0.7161   -1.4040 C   0  0  0  0  0  0
   -0.0916   -0.0050   -0.0996 C   0  0  0  0  0  0
   -0.7053    1.4010   -0.0491 C   0  0  0  0  0  0
    1.4425    0.0184    0.0507 C   0  0  0  0  0  0
    2.0121    0.7007    1.3069 C   0  0  0  0  0  0
    1.4760    0.0915    2.6163 C   0  0  0  0  0  0
    2.0923    0.7542    3.8585 C   0  0  0  0  0  0
    3.6264    0.6996    3.8256 C   0  0  0  0  0  0
    4.1697    1.3210    2.5307 C   0  0  0  0  0  0
    3.5528    0.6523    1.2935 C   0  0  0  0  0  0
   -0.1010   -0.1663   -2.2745 H   0  0  0  0  0  0
   -1.5684   -0.7916   -1.5073 H   0  0  0  0  0  0
   -0.0669   -1.7299   -1.4456 H   0  0  0  0  0  0
   -0.5110   -0.5883    0.7319 H   0  0  0  0  0  0
   -0.2762    2.0390   -0.8318 H   0  0  0  0  0  0
   -0.5299    1.8912    0.9135 H   0  0  0  0  0  0
   -1.7885    1.3624   -0.2083 H   0  0  0  0  0  0
    1.8100   -1.0180    0.0226 H   0  0  0  0  0  0
    1.8676    0.5127   -0.8358 H   0  0  0  0  0  0
    1.7214    1.7622    1.2907 H   0  0  0  0  0  0
    0.3841    0.1763    2.6576 H   0  0  0  0  0  0
    1.7057   -0.9848    2.6242 H   0  0  0  0  0  0
    1.7715    1.8051    3.8994 H   0  0  0  0  0  0
    1.7114    0.2766    4.7692 H   0  0  0  0  0  0
    4.0464    1.2083    4.7015 H   0  0  0  0  0  0
    3.9508   -0.3493    3.8852 H   0  0  0  0  0  0
    3.9309    2.3941    2.5182 H   0  0  0  0  0  0
    5.2631    1.2438    2.4977 H   0  0  0  0  0  0
    3.8725   -0.4001    1.2564 H   0  0  0  0  0  0
    3.9313    1.1235    0.3774 H   0  0  0  0  0  0
  1  2  1  0  0  0
  1 11  1  0  0  0
  1 12  1  0  0  0
  1 13  1  0  0  0
  2  3  1  0  0  0
  2  4  1  0  0  0
  2 14  1  0  0  0
  3 15  1  0  0  0
  3 16  1  0  0  0
  3 17  1  0  0  0
  4  5  1  0  0  0
  4 18  1  0  0  0
  4 19  1  0  0  0
  5 10  1  0  0  0
  5  6  1  0  0  0
  5 20  1  0  0  0
  6  7  1  0  0  0
  6 21  1  0  0  0
  6 22  1  0  0  0
  7  8  1  0  0  0
  7 23  1  0  0  0
  7 24  1  0  0  0
  8  9  1  0  0  0
  8 25  1  0  0  0
  8 26  1  0  0  0
  9 10  1  0  0  0
  9 27  1  0  0  0
  9 28  1  0  0  0
 10 29  1  0  0  0
 10 30  1  0  0  0
M  END
>  <i_m_Spin_multiplicity> (1)
1

>  <s_j_Task> (1)
Single Point

>  <s_j_QM_Method> (1)
DFT(b3lyp-d3)

>  <s_j_QM_Basis> (1)
cc-pvtz(-f)

>  <i_j_Number_of_canonical_orbitals> (1)
405

>  <i_j_Geometry_convergence_category> (1)
3

>  <r_j_Gas_Phase_Energy> (1)
-393.292438768829

>  <r_j_Final_Energy> (1)
-393.292438768829

>  <r_j_HOMO> (1)
-0.294881109087561

>  <r_j_LUMO> (1)
0.0221717728080274

>  <r_j_Polarizability> (1)
117.672637277499

>  <r_j_QM_Dipole_(debye)> (1)
0.145844848523636

>  <r_j_QM_Dipole_X_(debye)> (1)
-0.0106738391146119

>  <r_j_QM_Dipole_Y_(debye)> (1)
0.00914534078655899

>  <r_j_QM_Dipole_Z_(debye)> (1)
0.145165945529023

>  <r_j_Lowest_Frequency_(cm-1)> (1)
89.8978778586817

>  <r_j_Highest_Frequency_(cm-1)> (1)
3050.53214600165

>  <r_j_2nd_Lowest_Frequency_(cm-1)> (1)
105.705928393708

>  <i_j_Num_Negative_Frequencies> (1)
0

>  <r_j_Zero_Point_Energy_(kcal/mol)> (1)
177.373175204989

>  <r_j_Entropy_(cal/mol/K)_298.15K_1.00E+00atm> (1)
97.9392090325546

>  <r_j_Enthalpy_(kcal/mol)_298.15K_1.00E+00atm> (1)
7.18742073457434

>  <r_j_Free_Energy_(kcal/mol)_298.15K_1.00E+00atm> (1)
-22.0131544384818

>  <r_j_Internal_Energy_(kcal/mol)_298.15K_1.00E+00atm> (1)
6.59493514574707

>  <r_j_Heat_Capacity_(cal/mol/K)_298.15K_1.00E+00atm> (1)
42.6724678691806

>  <r_j_ln(Q)_298.15K_1.00E+00atm> (1)
37.1539069533373

>  <r_j_Total_Internal_Energy_(au)_298.15K_1.00E+00atm> (1)
-392.999266921796

>  <r_j_Total_Enthalpy_(au)_298.15K_1.00E+00atm> (1)
-392.998322735904

>  <r_j_Total_Free_Energy_(au)_298.15K_1.00E+00atm> (1)
-393.044856814781

>  <r_lp_tautomer_probability> (1)
1

>  <r_epik_Ionization_Penalty> (1)
  0.0000

>  <r_epik_Ionization_Penalty_Charging> (1)
  0.0000

>  <r_epik_Ionization_Penalty_Neutral> (1)
  0.0000

>  <r_epik_State_Penalty> (1)
  0.0000

>  <r_epik_Charging_Adjusted_Penalty> (1)
0

>  <i_epik_Tot_Q> (1)
0

>  <i_epik_Tot_abs_Q> (1)
0

>  <s_lp_Force_Field> (1)
S-OPLS

>  <r_lp_Energy> (1)
9.53895

>  <b_lp_Chiralities_Consistent> (1)
1

$$$$
