15505_Propylcyclohexane
                    3D
 Schrodinger Suite 2021-3.
 27 27  0  0  1  0            999 V2000
   -0.5562    1.5561   -0.1255 C   0  0  0  0  0  0
   -0.0823    0.1039   -0.0079 C   0  0  0  0  0  0
    1.4455   -0.0134    0.0712 C   0  0  0  0  0  0
    1.9921   -1.4508    0.0844 C   0  0  0  0  0  0
    3.5285   -1.4566   -0.0356 C   0  0  0  0  0  0
    4.1103   -2.8778   -0.0306 C   0  0  0  0  0  0
    3.6689   -3.6558    1.2175 C   0  0  0  0  0  0
    2.1387   -3.6685    1.3432 C   0  0  0  0  0  0
    1.5598   -2.2450    1.3326 C   0  0  0  0  0  0
   -1.6480    1.6206   -0.1786 H   0  0  0  0  0  0
   -0.1490    2.0327   -1.0248 H   0  0  0  0  0  0
   -0.2287    2.1480    0.7370 H   0  0  0  0  0  0
   -0.5403   -0.3535    0.8774 H   0  0  0  0  0  0
   -0.4435   -0.4724   -0.8708 H   0  0  0  0  0  0
    1.8814    0.5191   -0.7865 H   0  0  0  0  0  0
    1.8046    0.5151    0.9670 H   0  0  0  0  0  0
    1.5888   -1.9735   -0.7988 H   0  0  0  0  0  0
    3.8319   -0.9255   -0.9468 H   0  0  0  0  0  0
    3.9498   -0.8906    0.8089 H   0  0  0  0  0  0
    3.7650   -3.4112   -0.9280 H   0  0  0  0  0  0
    5.2045   -2.8398   -0.0917 H   0  0  0  0  0  0
    4.0594   -4.6801    1.1892 H   0  0  0  0  0  0
    4.0996   -3.1792    2.1099 H   0  0  0  0  0  0
    1.7137   -4.2345    0.5017 H   0  0  0  0  0  0
    1.8340   -4.1929    2.2568 H   0  0  0  0  0  0
    1.9047   -1.7054    2.2278 H   0  0  0  0  0  0
    0.4671   -2.2906    1.3983 H   0  0  0  0  0  0
  1  2  1  0  0  0
  1 10  1  0  0  0
  1 11  1  0  0  0
  1 12  1  0  0  0
  2  3  1  0  0  0
  2 13  1  0  0  0
  2 14  1  0  0  0
  3  4  1  0  0  0
  3 15  1  0  0  0
  3 16  1  0  0  0
  4  9  1  0  0  0
  4  5  1  0  0  0
  4 17  1  0  0  0
  5  6  1  0  0  0
  5 18  1  0  0  0
  5 19  1  0  0  0
  6  7  1  0  0  0
  6 20  1  0  0  0
  6 21  1  0  0  0
  7  8  1  0  0  0
  7 22  1  0  0  0
  7 23  1  0  0  0
  8  9  1  0  0  0
  8 24  1  0  0  0
  8 25  1  0  0  0
  9 26  1  0  0  0
  9 27  1  0  0  0
M  END
>  <i_m_Spin_multiplicity> (1)
1

>  <s_j_Task> (1)
Single Point

>  <s_j_QM_Method> (1)
DFT(b3lyp-d3)

>  <s_j_QM_Basis> (1)
cc-pvtz(-f)

>  <i_j_Number_of_canonical_orbitals> (1)
365

>  <i_j_Geometry_convergence_category> (1)
0

>  <r_j_Gas_Phase_Energy> (1)
-353.961956312014

>  <r_j_Final_Energy> (1)
-353.961956312014

>  <r_j_HOMO> (1)
-0.301926275476054

>  <r_j_LUMO> (1)
0.0149968687360846

>  <r_j_Polarizability> (1)
106.174725093874

>  <r_j_QM_Dipole_(debye)> (1)
0.116477274972126

>  <r_j_QM_Dipole_X_(debye)> (1)
-0.0239113294030404

>  <r_j_QM_Dipole_Y_(debye)> (1)
-0.112506071869979

>  <r_j_QM_Dipole_Z_(debye)> (1)
-0.0183735599027182

>  <r_j_Lowest_Frequency_(cm-1)> (1)
103.320000801936

>  <r_j_Highest_Frequency_(cm-1)> (1)
3046.14193902989

>  <r_j_2nd_Lowest_Frequency_(cm-1)> (1)
136.421126723966

>  <i_j_Num_Negative_Frequencies> (1)
0

>  <r_j_Zero_Point_Energy_(kcal/mol)> (1)
159.6573811277

>  <r_j_Entropy_(cal/mol/K)_298.15K_1.00E+00atm> (1)
92.9866037087141

>  <r_j_Enthalpy_(kcal/mol)_298.15K_1.00E+00atm> (1)
6.47683377776965

>  <r_j_Free_Energy_(kcal/mol)_298.15K_1.00E+00atm> (1)
-21.2471221179834

>  <r_j_Internal_Energy_(kcal/mol)_298.15K_1.00E+00atm> (1)
5.88434818894237

>  <r_j_Heat_Capacity_(cal/mol/K)_298.15K_1.00E+00atm> (1)
37.4788738066898

>  <r_j_ln(Q)_298.15K_1.00E+00atm> (1)
35.8609939526775

>  <r_j_Total_Internal_Energy_(au)_298.15K_1.00E+00atm> (1)
-353.698148772477

>  <r_j_Total_Enthalpy_(au)_298.15K_1.00E+00atm> (1)
-353.697204586585

>  <r_j_Total_Free_Energy_(au)_298.15K_1.00E+00atm> (1)
-353.741385522843

>  <r_lp_tautomer_probability> (1)
1

>  <r_epik_Ionization_Penalty> (1)
  0.0000

>  <r_epik_Ionization_Penalty_Charging> (1)
  0.0000

>  <r_epik_Ionization_Penalty_Neutral> (1)
  0.0000

>  <r_epik_State_Penalty> (1)
  0.0000

>  <r_epik_Charging_Adjusted_Penalty> (1)
0

>  <i_epik_Tot_Q> (1)
0

>  <i_epik_Tot_abs_Q> (1)
0

>  <s_lp_Force_Field> (1)
S-OPLS

>  <r_lp_Energy> (1)
8.832417

>  <b_lp_Chiralities_Consistent> (1)
1

$$$$
