15506_Butylcyclohexane
                    3D
 Schrodinger Suite 2021-3.
 30 30  0  0  1  0            999 V2000
   -0.7293    1.4492    0.1146 C   0  0  0  0  0  0
   -0.1162    0.0465    0.0688 C   0  0  0  0  0  0
    1.4138    0.0626   -0.0363 C   0  0  0  0  0  0
    2.0240   -1.3434   -0.0908 C   0  0  0  0  0  0
    3.5610   -1.3933   -0.0923 C   0  0  0  0  0  0
    4.0613   -2.8451    0.0412 C   0  0  0  0  0  0
    5.5939   -2.9398    0.0413 C   0  0  0  0  0  0
    6.1913   -2.2812   -1.2104 C   0  0  0  0  0  0
    5.7142   -0.8282   -1.3456 C   0  0  0  0  0  0
    4.1803   -0.7358   -1.3413 C   0  0  0  0  0  0
   -1.8209    1.4097    0.1911 H   0  0  0  0  0  0
   -0.4784    2.0187   -0.7878 H   0  0  0  0  0  0
   -0.3547    2.0150    0.9754 H   0  0  0  0  0  0
   -0.4111   -0.5139    0.9665 H   0  0  0  0  0  0
   -0.5303   -0.5086   -0.7840 H   0  0  0  0  0  0
    1.7016    0.6348   -0.9278 H   0  0  0  0  0  0
    1.8309    0.6078    0.8229 H   0  0  0  0  0  0
    1.6570   -1.9180    0.7717 H   0  0  0  0  0  0
    1.6493   -1.8677   -0.9826 H   0  0  0  0  0  0
    3.9188   -0.8361    0.7893 H   0  0  0  0  0  0
    3.6531   -3.2959    0.9547 H   0  0  0  0  0  0
    3.6634   -3.4328   -0.7999 H   0  0  0  0  0  0
    5.9863   -2.4351    0.9358 H   0  0  0  0  0  0
    5.9087   -3.9879    0.1108 H   0  0  0  0  0  0
    7.2866   -2.3234   -1.1804 H   0  0  0  0  0  0
    5.8786   -2.8474   -2.0996 H   0  0  0  0  0  0
    6.1117   -0.2401   -0.5059 H   0  0  0  0  0  0
    6.1167   -0.3765   -2.2602 H   0  0  0  0  0  0
    3.7835   -1.2397   -2.2357 H   0  0  0  0  0  0
    3.8735    0.3135   -1.4132 H   0  0  0  0  0  0
  1  2  1  0  0  0
  1 11  1  0  0  0
  1 12  1  0  0  0
  1 13  1  0  0  0
  2  3  1  0  0  0
  2 14  1  0  0  0
  2 15  1  0  0  0
  3  4  1  0  0  0
  3 16  1  0  0  0
  3 17  1  0  0  0
  4  5  1  0  0  0
  4 18  1  0  0  0
  4 19  1  0  0  0
  5 10  1  0  0  0
  5  6  1  0  0  0
  5 20  1  0  0  0
  6  7  1  0  0  0
  6 21  1  0  0  0
  6 22  1  0  0  0
  7  8  1  0  0  0
  7 23  1  0  0  0
  7 24  1  0  0  0
  8  9  1  0  0  0
  8 25  1  0  0  0
  8 26  1  0  0  0
  9 10  1  0  0  0
  9 27  1  0  0  0
  9 28  1  0  0  0
 10 29  1  0  0  0
 10 30  1  0  0  0
M  END
>  <i_m_Spin_multiplicity> (1)
1

>  <s_j_Task> (1)
Single Point

>  <s_j_QM_Method> (1)
DFT(b3lyp-d3)

>  <s_j_QM_Basis> (1)
cc-pvtz(-f)

>  <i_j_Number_of_canonical_orbitals> (1)
406

>  <i_j_Geometry_convergence_category> (1)
0

>  <r_j_Gas_Phase_Energy> (1)
-393.291511507239

>  <r_j_Final_Energy> (1)
-393.291511507239

>  <r_j_HOMO> (1)
-0.29504732180786

>  <r_j_LUMO> (1)
0.0254038657244144

>  <r_j_Polarizability> (1)
118.722775906331

>  <r_j_QM_Dipole_(debye)> (1)
0.0589944080266277

>  <r_j_QM_Dipole_X_(debye)> (1)
0.0531720379558098

>  <r_j_QM_Dipole_Y_(debye)> (1)
-0.0113974738627866

>  <r_j_QM_Dipole_Z_(debye)> (1)
0.0228729566865603

>  <r_j_Lowest_Frequency_(cm-1)> (1)
83.6393313006612

>  <r_j_Highest_Frequency_(cm-1)> (1)
3046.1262027198

>  <r_j_2nd_Lowest_Frequency_(cm-1)> (1)
106.993356150274

>  <i_j_Num_Negative_Frequencies> (1)
0

>  <r_j_Zero_Point_Energy_(kcal/mol)> (1)
177.515223644594

>  <r_j_Entropy_(cal/mol/K)_298.15K_1.00E+00atm> (1)
99.1663464442359

>  <r_j_Enthalpy_(kcal/mol)_298.15K_1.00E+00atm> (1)
7.25426862442689

>  <r_j_Free_Energy_(kcal/mol)_298.15K_1.00E+00atm> (1)
-22.312177567922

>  <r_j_Internal_Energy_(kcal/mol)_298.15K_1.00E+00atm> (1)
6.66178303559962

>  <r_j_Heat_Capacity_(cal/mol/K)_298.15K_1.00E+00atm> (1)
42.2395823835689

>  <r_j_ln(Q)_298.15K_1.00E+00atm> (1)
37.6585996160434

>  <r_j_Total_Internal_Energy_(au)_298.15K_1.00E+00atm> (1)
-392.998006762712

>  <r_j_Total_Enthalpy_(au)_298.15K_1.00E+00atm> (1)
-392.99706257682

>  <r_j_Total_Free_Energy_(au)_298.15K_1.00E+00atm> (1)
-393.044179708283

>  <r_lp_tautomer_probability> (1)
1

>  <r_epik_Ionization_Penalty> (1)
  0.0000

>  <r_epik_Ionization_Penalty_Charging> (1)
  0.0000

>  <r_epik_Ionization_Penalty_Neutral> (1)
  0.0000

>  <r_epik_State_Penalty> (1)
  0.0000

>  <r_epik_Charging_Adjusted_Penalty> (1)
0

>  <i_epik_Tot_Q> (1)
0

>  <i_epik_Tot_abs_Q> (1)
0

>  <s_lp_Force_Field> (1)
S-OPLS

>  <r_lp_Energy> (1)
9.285165

>  <b_lp_Chiralities_Consistent> (1)
1

$$$$
