15575_Isopropyl nitrate
                    3D
 Schrodinger Suite 2021-3.
 14 13  0  0  1  0            999 V2000
   -0.7392   -0.7194    1.3181 C   0  0  0  0  0  0
   -0.1333    0.0592    0.1583 C   0  0  0  0  0  0
   -0.2857   -0.6325   -1.1901 C   0  0  0  0  0  0
    1.2855    0.1620    0.5128 O   0  0  0  0  0  0
    2.0023    1.1815   -0.1481 N   0  3  1  0  0  0
    3.1753    1.1850    0.1398 O   0  0  0  0  0  0
    1.3927    1.9222   -0.8972 O   0  5  0  0  0  0
   -1.8153   -0.8318    1.1568 H   0  0  0  0  0  0
   -0.5791   -0.1968    2.2643 H   0  0  0  0  0  0
   -0.2939   -1.7160    1.3889 H   0  0  0  0  0  0
   -0.5417    1.0729    0.1203 H   0  0  0  0  0  0
   -1.3474   -0.7386   -1.4339 H   0  0  0  0  0  0
    0.1644   -1.6292   -1.1570 H   0  0  0  0  0  0
    0.1903   -0.0505   -1.9815 H   0  0  0  0  0  0
  1  2  1  0  0  0
  1  8  1  0  0  0
  1  9  1  0  0  0
  1 10  1  0  0  0
  2  3  1  0  0  0
  2  4  1  0  0  0
  2 11  1  0  0  0
  3 12  1  0  0  0
  3 13  1  0  0  0
  3 14  1  0  0  0
  4  5  1  0  0  0
  5  6  2  0  0  0
  5  7  1  0  0  0
M  END
>  <i_m_Spin_multiplicity> (1)
1

>  <s_j_Task> (1)
Single Point

>  <s_j_QM_Method> (1)
DFT(b3lyp-d3)

>  <s_j_QM_Basis> (1)
cc-pvtz(-f)

>  <i_j_Number_of_canonical_orbitals> (1)
224

>  <i_j_Geometry_convergence_category> (1)
3

>  <r_j_Gas_Phase_Energy> (1)
-398.980797417009

>  <r_j_Final_Energy> (1)
-398.980797417009

>  <r_j_HOMO> (1)
-0.312213708281917

>  <r_j_LUMO> (1)
-0.066030767389919

>  <r_j_Polarizability> (1)
58.5953004605662

>  <r_j_QM_Dipole_(debye)> (1)
3.51937578570916

>  <r_j_QM_Dipole_X_(debye)> (1)
-3.14602861270103

>  <r_j_QM_Dipole_Y_(debye)> (1)
-1.55421756713273

>  <r_j_QM_Dipole_Z_(debye)> (1)
0.27003267046501

>  <r_j_Lowest_Frequency_(cm-1)> (1)
115.878608562409

>  <r_j_Highest_Frequency_(cm-1)> (1)
3090.40003046131

>  <r_j_2nd_Lowest_Frequency_(cm-1)> (1)
129.735638657788

>  <i_j_Num_Negative_Frequencies> (1)
0

>  <r_j_Zero_Point_Energy_(kcal/mol)> (1)
69.200162559653

>  <r_j_Entropy_(cal/mol/K)_298.15K_1.00E+00atm> (1)
83.0042953528063

>  <r_j_Enthalpy_(kcal/mol)_298.15K_1.00E+00atm> (1)
5.12523363751131

>  <r_j_Free_Energy_(kcal/mol)_298.15K_1.00E+00atm> (1)
-19.6224970219279

>  <r_j_Internal_Energy_(kcal/mol)_298.15K_1.00E+00atm> (1)
4.53274804868404

>  <r_j_Heat_Capacity_(cal/mol/K)_298.15K_1.00E+00atm> (1)
25.8819082007008

>  <r_j_ln(Q)_298.15K_1.00E+00atm> (1)
33.1189439742616

>  <r_j_Total_Internal_Energy_(au)_298.15K_1.00E+00atm> (1)
-398.863296543901

>  <r_j_Total_Enthalpy_(au)_298.15K_1.00E+00atm> (1)
-398.862352358009

>  <r_j_Total_Free_Energy_(au)_298.15K_1.00E+00atm> (1)
-398.901790377421

>  <r_lp_tautomer_probability> (1)
1

>  <r_epik_Ionization_Penalty> (1)
  0.0000

>  <r_epik_Ionization_Penalty_Charging> (1)
  0.0000

>  <r_epik_Ionization_Penalty_Neutral> (1)
  0.0000

>  <r_epik_State_Penalty> (1)
  0.0000

>  <r_epik_Charging_Adjusted_Penalty> (1)
0

>  <i_epik_Tot_Q> (1)
0

>  <i_epik_Tot_abs_Q> (1)
2

>  <s_lp_Force_Field> (1)
S-OPLS

>  <r_lp_Energy> (1)
12.233946

>  <b_lp_Chiralities_Consistent> (1)
1

$$$$
