15586_1,1-dichloro-1-fluoroethane
                    3D
 Schrodinger Suite 2021-3.
  8  7  0  0  1  0            999 V2000
   -0.0303    0.0027    0.0000 C   0  0  0  0  0  0
    1.4818    0.0059    0.0000 C   0  0  0  0  0  0
    1.9483   -1.2642   -0.0001 F   0  0  0  0  0  0
    2.1291    0.8270   -1.4766 Cl  0  0  0  0  0  0
    2.1291    0.8268    1.4767 Cl  0  0  0  0  0  0
   -0.4156    1.0219   -0.0002 H   0  0  0  0  0  0
   -0.3766   -0.5227    0.8927 H   0  0  0  0  0  0
   -0.3765   -0.5231   -0.8926 H   0  0  0  0  0  0
  1  2  1  0  0  0
  1  6  1  0  0  0
  1  7  1  0  0  0
  1  8  1  0  0  0
  2  3  1  0  0  0
  2  4  1  0  0  0
  2  5  1  0  0  0
M  END
>  <i_m_Spin_multiplicity> (1)
1

>  <s_j_Task> (1)
Single Point

>  <s_j_QM_Method> (1)
DFT(b3lyp-d3)

>  <s_j_QM_Basis> (1)
cc-pvtz(-f)

>  <i_j_Number_of_canonical_orbitals> (1)
150

>  <i_j_Geometry_convergence_category> (1)
0

>  <r_j_Gas_Phase_Energy> (1)
-1098.39536842878

>  <r_j_Final_Energy> (1)
-1098.39536842878

>  <r_j_HOMO> (1)
-0.311818954643816

>  <r_j_LUMO> (1)
-0.0266057769221523

>  <r_j_Polarizability> (1)
49.1884032378507

>  <r_j_QM_Dipole_(debye)> (1)
2.05026393172176

>  <r_j_QM_Dipole_X_(debye)> (1)
-2.05025809222223

>  <r_j_QM_Dipole_Y_(debye)> (1)
-0.00489313114266094

>  <r_j_QM_Dipole_Z_(debye)> (1)
4.75818914288759e-05

>  <r_j_Lowest_Frequency_(cm-1)> (1)
251.222067748307

>  <r_j_Highest_Frequency_(cm-1)> (1)
3120.4037174704

>  <r_j_2nd_Lowest_Frequency_(cm-1)> (1)
292.212834945531

>  <i_j_Num_Negative_Frequencies> (1)
0

>  <r_j_Zero_Point_Energy_(kcal/mol)> (1)
30.5105748116866

>  <r_j_Entropy_(cal/mol/K)_298.15K_1.00E+00atm> (1)
75.8318379199221

>  <r_j_Enthalpy_(kcal/mol)_298.15K_1.00E+00atm> (1)
4.03364674691669

>  <r_j_Free_Energy_(kcal/mol)_298.15K_1.00E+00atm> (1)
-18.5756157289081

>  <r_j_Internal_Energy_(kcal/mol)_298.15K_1.00E+00atm> (1)
3.44116115808941

>  <r_j_Heat_Capacity_(cal/mol/K)_298.15K_1.00E+00atm> (1)
18.8145852380955

>  <r_j_ln(Q)_298.15K_1.00E+00atm> (1)
31.3520127395426

>  <r_j_Total_Internal_Energy_(au)_298.15K_1.00E+00atm> (1)
-1098.34126289318

>  <r_j_Total_Enthalpy_(au)_298.15K_1.00E+00atm> (1)
-1098.34031870729

>  <r_j_Total_Free_Energy_(au)_298.15K_1.00E+00atm> (1)
-1098.37634886071

>  <r_lp_tautomer_probability> (1)
1

>  <r_epik_Ionization_Penalty> (1)
  0.0000

>  <r_epik_Ionization_Penalty_Charging> (1)
  0.0000

>  <r_epik_Ionization_Penalty_Neutral> (1)
  0.0000

>  <r_epik_State_Penalty> (1)
  0.0000

>  <r_epik_Charging_Adjusted_Penalty> (1)
0

>  <i_epik_Tot_Q> (1)
0

>  <i_epik_Tot_abs_Q> (1)
0

>  <s_lp_Force_Field> (1)
S-OPLS

>  <r_lp_Energy> (1)
-0.660698

>  <b_lp_Chiralities_Consistent> (1)
1

$$$$
