15609_Methyl heptadecanoate
                    3D
 Schrodinger Suite 2021-3.
 56 55  0  0  1  0            999 V2000
   -5.4102    7.4403   -2.4068 C   0  0  0  0  0  0
   -5.6783    6.4860   -1.2394 C   0  0  0  0  0  0
   -4.8741    5.1832   -1.3295 C   0  0  0  0  0  0
   -5.1416    4.2302   -0.1572 C   0  0  0  0  0  0
   -4.4256    2.8745   -0.2559 C   0  0  0  0  0  0
   -2.8940    2.9525   -0.1937 C   0  0  0  0  0  0
   -2.2261    1.5725   -0.1767 C   0  0  0  0  0  0
   -0.6951    1.6285   -0.1191 C   0  0  0  0  0  0
   -0.0423    0.2421   -0.0746 C   0  0  0  0  0  0
    1.4894    0.2827   -0.0212 C   0  0  0  0  0  0
    2.1219   -1.1145    0.0354 C   0  0  0  0  0  0
    3.6531   -1.1193    0.1629 C   0  0  0  0  0  0
    4.3869   -0.5391   -1.0560 C   0  0  0  0  0  0
    5.9114   -0.7276   -1.0195 C   0  0  0  0  0  0
    6.6064    0.0205    0.1242 C   0  0  0  0  0  0
    8.1267   -0.1361    0.0842 C   0  0  0  0  0  0
    8.8220    0.5855    1.2197 C   0  0  0  0  0  0
    8.2762    1.2264    2.0917 O   0  0  0  0  0  0
   10.1647    0.4248    1.1443 O   0  0  0  0  0  0
   10.9157    1.0741    2.1851 C   0  0  0  0  0  0
   -5.9971    8.3605   -2.3184 H   0  0  0  0  0  0
   -5.6654    6.9726   -3.3647 H   0  0  0  0  0  0
   -4.3519    7.7225   -2.4503 H   0  0  0  0  0  0
   -5.4442    6.9893   -0.2913 H   0  0  0  0  0  0
   -6.7499    6.2469   -1.1981 H   0  0  0  0  0  0
   -5.1135    4.6728   -2.2740 H   0  0  0  0  0  0
   -3.8047    5.4270   -1.3795 H   0  0  0  0  0  0
   -4.8541    4.7240    0.7823 H   0  0  0  0  0  0
   -6.2238    4.0546   -0.0870 H   0  0  0  0  0  0
   -4.7776    2.2290    0.5603 H   0  0  0  0  0  0
   -4.7243    2.3730   -1.1877 H   0  0  0  0  0  0
   -2.5117    3.5257   -1.0484 H   0  0  0  0  0  0
   -2.5962    3.5120    0.7051 H   0  0  0  0  0  0
   -2.5999    1.0005    0.6848 H   0  0  0  0  0  0
   -2.5349    1.0087   -1.0687 H   0  0  0  0  0  0
   -0.3172    2.1828   -0.9901 H   0  0  0  0  0  0
   -0.3846    2.2051    0.7641 H   0  0  0  0  0  0
   -0.4213   -0.3080    0.7987 H   0  0  0  0  0  0
   -0.3585   -0.3362   -0.9548 H   0  0  0  0  0  0
    1.8635    0.8297   -0.8965 H   0  0  0  0  0  0
    1.8096    0.8606    0.8579 H   0  0  0  0  0  0
    1.6936   -1.6597    0.8875 H   0  0  0  0  0  0
    1.8310   -1.6794   -0.8622 H   0  0  0  0  0  0
    3.9372   -0.5671    1.0681 H   0  0  0  0  0  0
    3.9932   -2.1529    0.3173 H   0  0  0  0  0  0
    3.9931   -1.0167   -1.9637 H   0  0  0  0  0  0
    4.1626    0.5311   -1.1531 H   0  0  0  0  0  0
    6.1422   -1.8005   -0.9462 H   0  0  0  0  0  0
    6.3352   -0.3915   -1.9759 H   0  0  0  0  0  0
    6.3534    1.0869    0.0818 H   0  0  0  0  0  0
    6.2429   -0.3324    1.0947 H   0  0  0  0  0  0
    8.4201   -1.1928    0.1307 H   0  0  0  0  0  0
    8.5445    0.2406   -0.8583 H   0  0  0  0  0  0
   11.9619    0.8448    1.9824 H   0  0  0  0  0  0
   10.6221    0.6945    3.1675 H   0  0  0  0  0  0
   10.7483    2.1544    2.1656 H   0  0  0  0  0  0
  1  2  1  0  0  0
  1 21  1  0  0  0
  1 22  1  0  0  0
  1 23  1  0  0  0
  2  3  1  0  0  0
  2 24  1  0  0  0
  2 25  1  0  0  0
  3  4  1  0  0  0
  3 26  1  0  0  0
  3 27  1  0  0  0
  4  5  1  0  0  0
  4 28  1  0  0  0
  4 29  1  0  0  0
  5  6  1  0  0  0
  5 30  1  0  0  0
  5 31  1  0  0  0
  6  7  1  0  0  0
  6 32  1  0  0  0
  6 33  1  0  0  0
  7  8  1  0  0  0
  7 34  1  0  0  0
  7 35  1  0  0  0
  8  9  1  0  0  0
  8 36  1  0  0  0
  8 37  1  0  0  0
  9 10  1  0  0  0
  9 38  1  0  0  0
  9 39  1  0  0  0
 10 11  1  0  0  0
 10 40  1  0  0  0
 10 41  1  0  0  0
 11 12  1  0  0  0
 11 42  1  0  0  0
 11 43  1  0  0  0
 12 13  1  0  0  0
 12 44  1  0  0  0
 12 45  1  0  0  0
 13 14  1  0  0  0
 13 46  1  0  0  0
 13 47  1  0  0  0
 14 15  1  0  0  0
 14 48  1  0  0  0
 14 49  1  0  0  0
 15 16  1  0  0  0
 15 50  1  0  0  0
 15 51  1  0  0  0
 16 17  1  0  0  0
 16 52  1  0  0  0
 16 53  1  0  0  0
 17 18  2  0  0  0
 17 19  1  0  0  0
 19 20  1  0  0  0
 20 54  1  0  0  0
 20 55  1  0  0  0
 20 56  1  0  0  0
M  END
>  <i_m_Spin_multiplicity> (1)
1

>  <s_j_Task> (1)
Single Point

>  <s_j_QM_Method> (1)
DFT(b3lyp-d3)

>  <s_j_QM_Basis> (1)
cc-pvtz(-f)

>  <i_j_Number_of_canonical_orbitals> (1)
779

>  <i_j_Geometry_convergence_category> (1)
3

>  <r_j_Gas_Phase_Energy> (1)
-858.433704978095

>  <r_j_Final_Energy> (1)
-858.433704978095

>  <r_j_HOMO> (1)
-0.276229766943448

>  <r_j_LUMO> (1)
0.00150153520686954

>  <r_j_Polarizability> (1)
228.5744014701

>  <r_j_QM_Dipole_(debye)> (1)
1.514443248257

>  <r_j_QM_Dipole_X_(debye)> (1)
1.00533191035296

>  <r_j_QM_Dipole_Y_(debye)> (1)
-0.743589486164396

>  <r_j_QM_Dipole_Z_(debye)> (1)
-0.854354012270707

>  <r_j_Lowest_Frequency_(cm-1)> (1)
21.1875085722059

>  <r_j_Highest_Frequency_(cm-1)> (1)
3107.97545608798

>  <r_j_2nd_Lowest_Frequency_(cm-1)> (1)
39.4572851447038

>  <i_j_Num_Negative_Frequencies> (1)
0

>  <r_j_Zero_Point_Energy_(kcal/mol)> (1)
324.5645536212

>  <r_j_Entropy_(cal/mol/K)_298.15K_1.00E+00atm> (1)
161.19179330258

>  <r_j_Enthalpy_(kcal/mol)_298.15K_1.00E+00atm> (1)
15.5205444955471

>  <r_j_Free_Energy_(kcal/mol)_298.15K_1.00E+00atm> (1)
-32.538788677617

>  <r_j_Internal_Energy_(kcal/mol)_298.15K_1.00E+00atm> (1)
14.9280589067199

>  <r_j_Heat_Capacity_(cal/mol/K)_298.15K_1.00E+00atm> (1)
90.1239013444078

>  <r_j_ln(Q)_298.15K_1.00E+00atm> (1)
54.9191225765036

>  <r_j_Total_Internal_Energy_(au)_298.15K_1.00E+00atm> (1)
-857.892689059199

>  <r_j_Total_Enthalpy_(au)_298.15K_1.00E+00atm> (1)
-857.891744873306

>  <r_j_Total_Free_Energy_(au)_298.15K_1.00E+00atm> (1)
-857.968332296239

>  <r_lp_tautomer_probability> (1)
1

>  <r_epik_Ionization_Penalty> (1)
  0.0000

>  <r_epik_Ionization_Penalty_Charging> (1)
  0.0000

>  <r_epik_Ionization_Penalty_Neutral> (1)
  0.0000

>  <r_epik_State_Penalty> (1)
  0.0000

>  <r_epik_Charging_Adjusted_Penalty> (1)
0

>  <i_epik_Tot_Q> (1)
0

>  <i_epik_Tot_abs_Q> (1)
0

>  <s_lp_Force_Field> (1)
S-OPLS

>  <r_lp_Energy> (1)
8.475494

>  <b_lp_Chiralities_Consistent> (1)
1

>  <s_epik_Chemistry_Notes> (1)
This compound has an ester and may undergo hydrolysis at high or low pH.

$$$$
