15600_N-decane
                    3D
 Schrodinger Suite 2021-3.
 32 31  0  0  1  0            999 V2000
   -4.3542    2.8079   -0.1581 C   0  0  0  0  0  0
   -2.8243    2.8477   -0.1003 C   0  0  0  0  0  0
   -2.1868    1.4535   -0.0606 C   0  0  0  0  0  0
   -0.6556    1.4880    0.0043 C   0  0  0  0  0  0
   -0.0181    0.0931    0.0575 C   0  0  0  0  0  0
    1.5186    0.0970    0.0510 C   0  0  0  0  0  0
    2.1558    0.7490    1.2853 C   0  0  0  0  0  0
    3.6870    0.6745    1.2892 C   0  0  0  0  0  0
    4.3239    1.3375    2.5166 C   0  0  0  0  0  0
    5.8536    1.2654    2.5128 C   0  0  0  0  0  0
   -4.7830    3.8151   -0.1854 H   0  0  0  0  0  0
   -4.7678    2.2926    0.7166 H   0  0  0  0  0  0
   -4.7010    2.2729   -1.0497 H   0  0  0  0  0  0
   -2.4372    3.3972   -0.9693 H   0  0  0  0  0  0
   -2.5046    3.4158    0.7841 H   0  0  0  0  0  0
   -2.5752    0.9020    0.8080 H   0  0  0  0  0  0
   -2.5031    0.8834   -0.9461 H   0  0  0  0  0  0
   -0.2661    2.0301   -0.8699 H   0  0  0  0  0  0
   -0.3517    2.0718    0.8828 H   0  0  0  0  0  0
   -0.3751   -0.4336    0.9544 H   0  0  0  0  0  0
   -0.3765   -0.4922   -0.8001 H   0  0  0  0  0  0
    1.8770   -0.9386   -0.0263 H   0  0  0  0  0  0
    1.8757    0.6096   -0.8539 H   0  0  0  0  0  0
    1.8527    1.8021    1.3504 H   0  0  0  0  0  0
    1.7654    0.2642    2.1922 H   0  0  0  0  0  0
    4.0025   -0.3777    1.2392 H   0  0  0  0  0  0
    4.0765    1.1500    0.3772 H   0  0  0  0  0  0
    4.0055    2.3879    2.5651 H   0  0  0  0  0  0
    3.9350    0.8609    3.4269 H   0  0  0  0  0  0
    6.2822    1.7453    3.3988 H   0  0  0  0  0  0
    6.2689    1.7640    1.6293 H   0  0  0  0  0  0
    6.1990    0.2252    2.4964 H   0  0  0  0  0  0
  1  2  1  0  0  0
  1 11  1  0  0  0
  1 12  1  0  0  0
  1 13  1  0  0  0
  2  3  1  0  0  0
  2 14  1  0  0  0
  2 15  1  0  0  0
  3  4  1  0  0  0
  3 16  1  0  0  0
  3 17  1  0  0  0
  4  5  1  0  0  0
  4 18  1  0  0  0
  4 19  1  0  0  0
  5  6  1  0  0  0
  5 20  1  0  0  0
  5 21  1  0  0  0
  6  7  1  0  0  0
  6 22  1  0  0  0
  6 23  1  0  0  0
  7  8  1  0  0  0
  7 24  1  0  0  0
  7 25  1  0  0  0
  8  9  1  0  0  0
  8 26  1  0  0  0
  8 27  1  0  0  0
  9 10  1  0  0  0
  9 28  1  0  0  0
  9 29  1  0  0  0
 10 30  1  0  0  0
 10 31  1  0  0  0
 10 32  1  0  0  0
M  END
>  <i_m_Spin_multiplicity> (1)
1

>  <s_j_Task> (1)
Single Point

>  <s_j_QM_Method> (1)
DFT(b3lyp-d3)

>  <s_j_QM_Basis> (1)
cc-pvtz(-f)

>  <i_j_Number_of_canonical_orbitals> (1)
425

>  <i_j_Geometry_convergence_category> (1)
3

>  <r_j_Gas_Phase_Energy> (1)
-394.499164018051

>  <r_j_Final_Energy> (1)
-394.499164018051

>  <r_j_HOMO> (1)
-0.298766684794637

>  <r_j_LUMO> (1)
0.0308214068521438

>  <r_j_Polarizability> (1)
125.09765064169

>  <r_j_QM_Dipole_(debye)> (1)
0.0290782554892594

>  <r_j_QM_Dipole_X_(debye)> (1)
0.000237157917251189

>  <r_j_QM_Dipole_Y_(debye)> (1)
0.0252937923054711

>  <r_j_QM_Dipole_Z_(debye)> (1)
0.0143426904459595

>  <r_j_Lowest_Frequency_(cm-1)> (1)
58.9386420923033

>  <r_j_Highest_Frequency_(cm-1)> (1)
3046.01269146256

>  <r_j_2nd_Lowest_Frequency_(cm-1)> (1)
103.527457234487

>  <i_j_Num_Negative_Frequencies> (1)
0

>  <r_j_Zero_Point_Energy_(kcal/mol)> (1)
189.903870887883

>  <r_j_Entropy_(cal/mol/K)_298.15K_1.00E+00atm> (1)
109.380760583034

>  <r_j_Enthalpy_(kcal/mol)_298.15K_1.00E+00atm> (1)
8.56335880140902

>  <r_j_Free_Energy_(kcal/mol)_298.15K_1.00E+00atm> (1)
-24.0485149664225

>  <r_j_Internal_Energy_(kcal/mol)_298.15K_1.00E+00atm> (1)
7.97087321258174

>  <r_j_Heat_Capacity_(cal/mol/K)_298.15K_1.00E+00atm> (1)
47.5824780545206

>  <r_j_ln(Q)_298.15K_1.00E+00atm> (1)
40.5891981508319

>  <r_j_Total_Internal_Energy_(au)_298.15K_1.00E+00atm> (1)
-394.183830539338

>  <r_j_Total_Enthalpy_(au)_298.15K_1.00E+00atm> (1)
-394.182886353446

>  <r_j_Total_Free_Energy_(au)_298.15K_1.00E+00atm> (1)
-394.234856682703

>  <r_lp_tautomer_probability> (1)
1

>  <r_epik_Ionization_Penalty> (1)
  0.0000

>  <r_epik_Ionization_Penalty_Charging> (1)
  0.0000

>  <r_epik_Ionization_Penalty_Neutral> (1)
  0.0000

>  <r_epik_State_Penalty> (1)
  0.0000

>  <r_epik_Charging_Adjusted_Penalty> (1)
0

>  <i_epik_Tot_Q> (1)
0

>  <i_epik_Tot_abs_Q> (1)
0

>  <s_lp_Force_Field> (1)
S-OPLS

>  <r_lp_Energy> (1)
4.452942

>  <b_lp_Chiralities_Consistent> (1)
1

$$$$
