15618_Dehydroabietic acid
                    3D
 Schrodinger Suite 2021-3.
 49 51  0  0  1  0            999 V2000
   -0.5305   -0.9663   -1.1554 C   0  0  0  0  0  0
   -0.0128   -0.0450   -0.0351 C   0  0  0  0  0  0
   -0.6375    1.3574   -0.1533 C   0  0  0  0  0  0
    1.5074    0.0155   -0.0141 C   0  0  0  0  0  0
    2.2367   -0.4307    1.0861 C   0  0  0  0  0  0
    3.6384   -0.3944    1.1333 C   0  0  0  0  0  0
    4.3664    0.1171    0.0445 C   0  0  0  0  0  0
    3.6232    0.5542   -1.0677 C   0  0  0  0  0  0
    2.2351    0.5111   -1.1043 C   0  0  0  0  0  0
    5.9100    0.1751   -0.0025 C   0  0  0  0  0  0
    6.3729   -0.8250   -1.1053 C   0  0  0  0  0  0
    7.8948   -0.9837   -1.1856 C   0  0  0  0  0  0
    8.4783   -1.4043    0.1654 C   0  0  0  0  0  0
    8.1000   -0.4408    1.3033 C   0  0  0  0  0  0
    6.5547   -0.2137    1.3802 C   0  0  0  0  0  0
    5.7742   -1.3725    2.0261 C   0  0  0  0  0  0
    4.3502   -0.9277    2.3548 C   0  0  0  0  0  0
    8.6474   -0.9992    2.6324 C   0  0  0  0  0  0
    8.8315    0.9775    1.1666 C   0  0  0  0  0  0
    8.4796    1.8218    2.0264 O   0  0  0  0  0  0
    9.6827    1.0883    0.2470 O   0  5  0  0  0  0
    6.3333    1.6151   -0.3910 C   0  0  0  0  0  0
   -0.1104   -1.9724   -1.0610 H   0  0  0  0  0  0
   -0.2463   -0.5800   -2.1407 H   0  0  0  0  0  0
   -1.6244   -1.0437   -1.1298 H   0  0  0  0  0  0
   -0.3377   -0.4734    0.9231 H   0  0  0  0  0  0
   -0.2966    2.0080    0.6578 H   0  0  0  0  0  0
   -1.7327    1.3060   -0.1198 H   0  0  0  0  0  0
   -0.3541    1.8320   -1.0995 H   0  0  0  0  0  0
    1.7021   -0.8366    1.9449 H   0  0  0  0  0  0
    4.1494    0.9388   -1.9355 H   0  0  0  0  0  0
    1.7147    0.8636   -1.9925 H   0  0  0  0  0  0
    5.9171   -1.8053   -0.9044 H   0  0  0  0  0  0
    5.9717   -0.5011   -2.0753 H   0  0  0  0  0  0
    8.1395   -1.7267   -1.9589 H   0  0  0  0  0  0
    8.3743   -0.0441   -1.4716 H   0  0  0  0  0  0
    8.1291   -2.4226    0.4099 H   0  0  0  0  0  0
    9.5700   -1.4323    0.0952 H   0  0  0  0  0  0
    6.4469    0.6526    2.0451 H   0  0  0  0  0  0
    5.7438   -2.2476    1.3633 H   0  0  0  0  0  0
    6.2636   -1.6945    2.9483 H   0  0  0  0  0  0
    4.3958   -0.1405    3.1225 H   0  0  0  0  0  0
    3.7647   -1.7484    2.7918 H   0  0  0  0  0  0
    8.3283   -2.0304    2.8361 H   0  0  0  0  0  0
    8.3455   -0.3531    3.4618 H   0  0  0  0  0  0
    9.7434   -0.9998    2.5962 H   0  0  0  0  0  0
    7.4141    1.6997   -0.4929 H   0  0  0  0  0  0
    6.0230    2.3260    0.3792 H   0  0  0  0  0  0
    5.8837    1.9162   -1.3434 H   0  0  0  0  0  0
  1  2  1  0  0  0
  1 23  1  0  0  0
  1 24  1  0  0  0
  1 25  1  0  0  0
  2  3  1  0  0  0
  2  4  1  0  0  0
  2 26  1  0  0  0
  3 27  1  0  0  0
  3 28  1  0  0  0
  3 29  1  0  0  0
  4  9  1  0  0  0
  4  5  2  0  0  0
  5  6  1  0  0  0
  5 30  1  0  0  0
  6 17  1  0  0  0
  6  7  2  0  0  0
  7  8  1  0  0  0
  7 10  1  0  0  0
  8  9  2  0  0  0
  8 31  1  0  0  0
  9 32  1  0  0  0
 10 15  1  0  0  0
 10 11  1  0  0  0
 10 22  1  0  0  0
 11 12  1  0  0  0
 11 33  1  0  0  0
 11 34  1  0  0  0
 12 13  1  0  0  0
 12 35  1  0  0  0
 12 36  1  0  0  0
 13 14  1  0  0  0
 13 37  1  0  0  0
 13 38  1  0  0  0
 14 15  1  0  0  0
 14 18  1  0  0  0
 14 19  1  0  0  0
 15 16  1  0  0  0
 15 39  1  0  0  0
 16 17  1  0  0  0
 16 40  1  0  0  0
 16 41  1  0  0  0
 17 42  1  0  0  0
 17 43  1  0  0  0
 18 44  1  0  0  0
 18 45  1  0  0  0
 18 46  1  0  0  0
 19 20  2  0  0  0
 19 21  1  0  0  0
 22 47  1  0  0  0
 22 48  1  0  0  0
 22 49  1  0  0  0
M  END
>  <i_m_Spin_multiplicity> (1)
1

>  <s_j_Task> (1)
Single Point

>  <s_j_QM_Method> (1)
DFT(b3lyp-d3)

>  <s_j_QM_Basis> (1)
cc-pvtz(-f)

>  <i_j_Number_of_canonical_orbitals> (1)
734

>  <i_j_Geometry_convergence_category> (1)
0

>  <r_j_Gas_Phase_Energy> (1)
-929.284970845362

>  <r_j_Final_Energy> (1)
-929.284970845362

>  <r_j_HOMO> (1)
-0.0585201455814975

>  <r_j_LUMO> (1)
0.0810128905122125

>  <r_j_Polarizability> (1)
238.906583408805

>  <r_j_QM_Dipole_(debye)> (1)
14.9745844058107

>  <r_j_QM_Dipole_X_(debye)> (1)
-13.9256551973755

>  <r_j_QM_Dipole_Y_(debye)> (1)
-5.07970917918716

>  <r_j_QM_Dipole_Z_(debye)> (1)
-2.12387855242211

>  <r_j_Lowest_Frequency_(cm-1)> (1)
49.3959272316579

>  <r_j_Highest_Frequency_(cm-1)> (1)
3137.19992233941

>  <r_j_2nd_Lowest_Frequency_(cm-1)> (1)
75.1598023096201

>  <i_j_Num_Negative_Frequencies> (1)
0

>  <r_j_Zero_Point_Energy_(kcal/mol)> (1)
268.379815884907

>  <r_j_Entropy_(cal/mol/K)_298.15K_1.00E+00atm> (1)
137.319587388013

>  <r_j_Enthalpy_(kcal/mol)_298.15K_1.00E+00atm> (1)
12.9019769428932

>  <r_j_Free_Energy_(kcal/mol)_298.15K_1.00E+00atm> (1)
-28.0398580368429

>  <r_j_Internal_Energy_(kcal/mol)_298.15K_1.00E+00atm> (1)
12.3094913540659

>  <r_j_Heat_Capacity_(cal/mol/K)_298.15K_1.00E+00atm> (1)
82.8229784028768

>  <r_j_ln(Q)_298.15K_1.00E+00atm> (1)
47.3258060037259

>  <r_j_Total_Internal_Energy_(au)_298.15K_1.00E+00atm> (1)
-928.837663958919

>  <r_j_Total_Enthalpy_(au)_298.15K_1.00E+00atm> (1)
-928.836719773027

>  <r_j_Total_Free_Energy_(au)_298.15K_1.00E+00atm> (1)
-928.901964740533

>  <r_epik_Ionization_Penalty> (1)
  0.0046

>  <r_epik_Ionization_Penalty_Charging> (1)
  0.0046

>  <r_epik_Ionization_Penalty_Neutral> (1)
  0.0000

>  <r_epik_State_Penalty> (1)
  0.0034

>  <r_epik_Charging_Adjusted_Penalty> (1)
0.00801160522759916

>  <i_epik_Tot_Q> (1)
-1

>  <i_epik_Tot_abs_Q> (1)
1

>  <s_lp_Force_Field> (1)
S-OPLS

>  <r_lp_Energy> (1)
54.727388

>  <b_lp_Chiralities_Consistent> (1)
1

$$$$
