15610_Methyl nonadecanoate
                    3D
 Schrodinger Suite 2021-3.
 62 61  0  0  1  0            999 V2000
   -3.0467    9.4313   -4.7630 C   0  0  0  0  0  0
   -2.4738    8.0478   -4.4410 C   0  0  0  0  0  0
   -0.9633    8.0786   -4.1688 C   0  0  0  0  0  0
   -0.3322    6.6980   -3.9316 C   0  0  0  0  0  0
   -0.8020    5.9914   -2.6529 C   0  0  0  0  0  0
   -0.1348    4.6273   -2.4449 C   0  0  0  0  0  0
   -0.5817    3.9102   -1.1656 C   0  0  0  0  0  0
    0.0504    2.5230   -1.0052 C   0  0  0  0  0  0
   -0.3644    1.8040    0.2856 C   0  0  0  0  0  0
    0.1406    0.3558    0.3876 C   0  0  0  0  0  0
    1.6674    0.2169    0.4488 C   0  0  0  0  0  0
    2.1393   -1.2393    0.5323 C   0  0  0  0  0  0
    3.6652   -1.3804    0.5778 C   0  0  0  0  0  0
    4.1442   -2.8367    0.5671 C   0  0  0  0  0  0
    5.6722   -2.9675    0.6277 C   0  0  0  0  0  0
    6.1952   -4.4011    0.4503 C   0  0  0  0  0  0
    5.7518   -5.3719    1.5509 C   0  0  0  0  0  0
    6.3568   -6.7649    1.3752 C   0  0  0  0  0  0
    5.8815   -7.7488    2.4237 C   0  0  0  0  0  0
    5.0424   -7.5306    3.2711 O   0  0  0  0  0  0
    6.5163   -8.9378    2.2940 O   0  0  0  0  0  0
    6.1204   -9.9468    3.2389 C   0  0  0  0  0  0
   -4.1242    9.3871   -4.9536 H   0  0  0  0  0  0
   -2.5676    9.8599   -5.6510 H   0  0  0  0  0  0
   -2.8833   10.1281   -3.9327 H   0  0  0  0  0  0
   -3.0011    7.6315   -3.5739 H   0  0  0  0  0  0
   -2.6733    7.3625   -5.2767 H   0  0  0  0  0  0
   -0.4630    8.5565   -5.0223 H   0  0  0  0  0  0
   -0.7648    8.7248   -3.3013 H   0  0  0  0  0  0
   -0.5407    6.0531   -4.7977 H   0  0  0  0  0  0
    0.7603    6.8063   -3.8921 H   0  0  0  0  0  0
   -0.5968    6.6368   -1.7864 H   0  0  0  0  0  0
   -1.8908    5.8536   -2.6779 H   0  0  0  0  0  0
   -0.3494    3.9861   -3.3122 H   0  0  0  0  0  0
    0.9573    4.7537   -2.4270 H   0  0  0  0  0  0
   -0.3316    4.5307   -0.2931 H   0  0  0  0  0  0
   -1.6770    3.8137   -1.1644 H   0  0  0  0  0  0
   -0.2248    1.8997   -1.8688 H   0  0  0  0  0  0
    1.1428    2.6246   -1.0420 H   0  0  0  0  0  0
   -0.0079    2.3787    1.1526 H   0  0  0  0  0  0
   -1.4609    1.8025    0.3533 H   0  0  0  0  0  0
   -0.2944   -0.1149    1.2797 H   0  0  0  0  0  0
   -0.2382   -0.2164   -0.4718 H   0  0  0  0  0  0
    2.1198    0.6817   -0.4367 H   0  0  0  0  0  0
    2.0486    0.7780    1.3145 H   0  0  0  0  0  0
    1.7008   -1.7196    1.4187 H   0  0  0  0  0  0
    1.7505   -1.7930   -0.3346 H   0  0  0  0  0  0
    4.1035   -0.8506   -0.2804 H   0  0  0  0  0  0
    4.0516   -0.8744    1.4742 H   0  0  0  0  0  0
    3.6878   -3.3714    1.4101 H   0  0  0  0  0  0
    3.7746   -3.3315   -0.3431 H   0  0  0  0  0  0
    6.1131   -2.3337   -0.1537 H   0  0  0  0  0  0
    6.0328   -2.5642    1.5848 H   0  0  0  0  0  0
    5.8676   -4.7861   -0.5264 H   0  0  0  0  0  0
    7.2931   -4.3776    0.4136 H   0  0  0  0  0  0
    6.0349   -4.9767    2.5344 H   0  0  0  0  0  0
    4.6612   -5.4636    1.5699 H   0  0  0  0  0  0
    6.1047   -7.1841    0.3920 H   0  0  0  0  0  0
    7.4531   -6.7364    1.4075 H   0  0  0  0  0  0
    6.7182  -10.8268    3.0006 H   0  0  0  0  0  0
    5.0541  -10.1693    3.1427 H   0  0  0  0  0  0
    6.3155   -9.6155    4.2624 H   0  0  0  0  0  0
  1  2  1  0  0  0
  1 23  1  0  0  0
  1 24  1  0  0  0
  1 25  1  0  0  0
  2  3  1  0  0  0
  2 26  1  0  0  0
  2 27  1  0  0  0
  3  4  1  0  0  0
  3 28  1  0  0  0
  3 29  1  0  0  0
  4  5  1  0  0  0
  4 30  1  0  0  0
  4 31  1  0  0  0
  5  6  1  0  0  0
  5 32  1  0  0  0
  5 33  1  0  0  0
  6  7  1  0  0  0
  6 34  1  0  0  0
  6 35  1  0  0  0
  7  8  1  0  0  0
  7 36  1  0  0  0
  7 37  1  0  0  0
  8  9  1  0  0  0
  8 38  1  0  0  0
  8 39  1  0  0  0
  9 10  1  0  0  0
  9 40  1  0  0  0
  9 41  1  0  0  0
 10 11  1  0  0  0
 10 42  1  0  0  0
 10 43  1  0  0  0
 11 12  1  0  0  0
 11 44  1  0  0  0
 11 45  1  0  0  0
 12 13  1  0  0  0
 12 46  1  0  0  0
 12 47  1  0  0  0
 13 14  1  0  0  0
 13 48  1  0  0  0
 13 49  1  0  0  0
 14 15  1  0  0  0
 14 50  1  0  0  0
 14 51  1  0  0  0
 15 16  1  0  0  0
 15 52  1  0  0  0
 15 53  1  0  0  0
 16 17  1  0  0  0
 16 54  1  0  0  0
 16 55  1  0  0  0
 17 18  1  0  0  0
 17 56  1  0  0  0
 17 57  1  0  0  0
 18 19  1  0  0  0
 18 58  1  0  0  0
 18 59  1  0  0  0
 19 20  2  0  0  0
 19 21  1  0  0  0
 21 22  1  0  0  0
 22 60  1  0  0  0
 22 61  1  0  0  0
 22 62  1  0  0  0
M  END
>  <i_m_Spin_multiplicity> (1)
1

>  <s_j_Task> (1)
Single Point

>  <s_j_QM_Method> (1)
DFT(b3lyp-d3)

>  <s_j_QM_Basis> (1)
cc-pvtz(-f)

>  <i_j_Number_of_canonical_orbitals> (1)
860

>  <i_j_Geometry_convergence_category> (1)
3

>  <r_j_Gas_Phase_Energy> (1)
-937.092305683655

>  <r_j_Final_Energy> (1)
-937.092305683655

>  <r_j_HOMO> (1)
-0.250005007319707

>  <r_j_LUMO> (1)
-0.0490628264322402

>  <r_j_Polarizability> (1)
254.12726600356

>  <r_j_QM_Dipole_(debye)> (1)
1.55858481555457

>  <r_j_QM_Dipole_X_(debye)> (1)
1.06030091815201

>  <r_j_QM_Dipole_Y_(debye)> (1)
-0.696514672901903

>  <r_j_QM_Dipole_Z_(debye)> (1)
-0.905436856260901

>  <r_j_Lowest_Frequency_(cm-1)> (1)
22.3599503569221

>  <r_j_Highest_Frequency_(cm-1)> (1)
3106.52982526486

>  <r_j_2nd_Lowest_Frequency_(cm-1)> (1)
26.1603372471397

>  <i_j_Num_Negative_Frequencies> (1)
0

>  <r_j_Zero_Point_Energy_(kcal/mol)> (1)
360.298805800417

>  <r_j_Entropy_(cal/mol/K)_298.15K_1.00E+00atm> (1)
171.333097310428

>  <r_j_Enthalpy_(kcal/mol)_298.15K_1.00E+00atm> (1)
17.0564622346239

>  <r_j_Free_Energy_(kcal/mol)_298.15K_1.00E+00atm> (1)
-34.0265007284802

>  <r_j_Internal_Energy_(kcal/mol)_298.15K_1.00E+00atm> (1)
16.4639766457966

>  <r_j_Heat_Capacity_(cal/mol/K)_298.15K_1.00E+00atm> (1)
99.6104998432586

>  <r_j_ln(Q)_298.15K_1.00E+00atm> (1)
57.4300900648569

>  <r_j_Total_Internal_Energy_(au)_298.15K_1.00E+00atm> (1)
-936.491895968012

>  <r_j_Total_Enthalpy_(au)_298.15K_1.00E+00atm> (1)
-936.490951782119

>  <r_j_Total_Free_Energy_(au)_298.15K_1.00E+00atm> (1)
-936.572357665863

>  <r_lp_tautomer_probability> (1)
1

>  <r_epik_Ionization_Penalty> (1)
  0.0000

>  <r_epik_Ionization_Penalty_Charging> (1)
  0.0000

>  <r_epik_Ionization_Penalty_Neutral> (1)
  0.0000

>  <r_epik_State_Penalty> (1)
  0.0000

>  <r_epik_Charging_Adjusted_Penalty> (1)
0

>  <i_epik_Tot_Q> (1)
0

>  <i_epik_Tot_abs_Q> (1)
0

>  <s_lp_Force_Field> (1)
S-OPLS

>  <r_lp_Energy> (1)
10.895856

>  <b_lp_Chiralities_Consistent> (1)
1

>  <s_epik_Chemistry_Notes> (1)
This compound has an ester and may undergo hydrolysis at high or low pH.

$$$$
