15625_2,3,7,8-Tetrachlorodibenzo-p-dioxin
                    3D
 Schrodinger Suite 2021-3.
 22 24  0  0  1  0            999 V2000
   -0.0894   -2.7599    0.0292 C   0  0  0  0  0  0
    0.0860   -2.0703    1.2185 C   0  0  0  0  0  0
    0.0667   -0.6712    1.2263 C   0  0  0  0  0  0
   -0.1278    0.0264    0.0446 C   0  0  0  0  0  0
   -0.3053   -0.6628   -1.1585 C   0  0  0  0  0  0
   -0.2860   -2.0626   -1.1662 C   0  0  0  0  0  0
   -0.5019   -2.9816   -2.6356 Cl  0  0  0  0  0  0
   -0.5465    0.2662   -2.6176 Cl  0  0  0  0  0  0
    0.2367    0.0559    2.3847 O   0  0  0  0  0  0
    0.4269   -0.6790    3.5350 C   0  0  0  0  0  0
    0.6023    0.0106    4.7244 C   0  0  0  0  0  0
    0.7990   -0.6868    5.9197 C   0  0  0  0  0  0
    0.8184   -2.0866    5.9120 C   0  0  0  0  0  0
    0.6408   -2.7758    4.7089 C   0  0  0  0  0  0
    0.4462   -2.0781    3.5272 C   0  0  0  0  0  0
    0.2762   -2.8052    2.3688 O   0  0  0  0  0  0
    1.0598   -3.0155    7.3711 Cl  0  0  0  0  0  0
    1.0148    0.2322    7.3891 Cl  0  0  0  0  0  0
   -0.0720   -3.8428    0.0390 H   0  0  0  0  0  0
   -0.1402    1.1092    0.0664 H   0  0  0  0  0  0
    0.5849    1.0935    4.7146 H   0  0  0  0  0  0
    0.6533   -3.8585    4.6871 H   0  0  0  0  0  0
  1  6  1  0  0  0
  1  2  2  0  0  0
  1 19  1  0  0  0
  2 16  1  0  0  0
  2  3  1  0  0  0
  3  4  2  0  0  0
  3  9  1  0  0  0
  4  5  1  0  0  0
  4 20  1  0  0  0
  5  6  2  0  0  0
  5  8  1  0  0  0
  6  7  1  0  0  0
  9 10  1  0  0  0
 10 15  1  0  0  0
 10 11  2  0  0  0
 11 12  1  0  0  0
 11 21  1  0  0  0
 12 13  2  0  0  0
 12 18  1  0  0  0
 13 14  1  0  0  0
 13 17  1  0  0  0
 14 15  2  0  0  0
 14 22  1  0  0  0
 15 16  1  0  0  0
M  END
>  <i_m_Spin_multiplicity> (1)
1

>  <s_j_Task> (1)
Single Point

>  <s_j_QM_Method> (1)
DFT(b3lyp-d3)

>  <s_j_QM_Basis> (1)
cc-pvtz(-f)

>  <i_j_Number_of_canonical_orbitals> (1)
456

>  <i_j_Geometry_convergence_category> (1)
0

>  <r_j_Gas_Phase_Energy> (1)
-2451.24367601777

>  <r_j_Final_Energy> (1)
-2451.24367601777

>  <r_j_HOMO> (1)
-0.246736037373019

>  <r_j_LUMO> (1)
-0.0796540760741081

>  <r_j_Polarizability> (1)
202.823932279318

>  <r_j_QM_Dipole_(debye)> (1)
0.000189139097397062

>  <r_j_QM_Dipole_X_(debye)> (1)
1.83404746768325e-05

>  <r_j_QM_Dipole_Y_(debye)> (1)
-0.000179198634944895

>  <r_j_QM_Dipole_Z_(debye)> (1)
-5.76634579841532e-05

>  <r_j_Lowest_Frequency_(cm-1)> (1)
33.442319946698

>  <r_j_Highest_Frequency_(cm-1)> (1)
3176.46216856783

>  <r_j_2nd_Lowest_Frequency_(cm-1)> (1)
59.9234097925157

>  <i_j_Num_Negative_Frequencies> (1)
0

>  <r_j_Zero_Point_Energy_(kcal/mol)> (1)
80.7912804225348

>  <r_j_Entropy_(cal/mol/K)_298.15K_1.00E+00atm> (1)
117.440708237187

>  <r_j_Enthalpy_(kcal/mol)_298.15K_1.00E+00atm> (1)
9.58993104420308

>  <r_j_Free_Energy_(kcal/mol)_298.15K_1.00E+00atm> (1)
-25.4250161167143

>  <r_j_Internal_Energy_(kcal/mol)_298.15K_1.00E+00atm> (1)
8.99744545537581

>  <r_j_Heat_Capacity_(cal/mol/K)_298.15K_1.00E+00atm> (1)
55.2029984852076

>  <r_j_ln(Q)_298.15K_1.00E+00atm> (1)
42.9124633512839

>  <r_j_Total_Internal_Energy_(au)_298.15K_1.00E+00atm> (1)
-2451.1005885742

>  <r_j_Total_Enthalpy_(au)_298.15K_1.00E+00atm> (1)
-2451.0996443883

>  <r_j_Total_Free_Energy_(au)_298.15K_1.00E+00atm> (1)
-2451.1554442588

>  <r_lp_tautomer_probability> (1)
1

>  <r_epik_Ionization_Penalty> (1)
  0.0000

>  <r_epik_Ionization_Penalty_Charging> (1)
  0.0000

>  <r_epik_Ionization_Penalty_Neutral> (1)
  0.0000

>  <r_epik_State_Penalty> (1)
  0.0000

>  <r_epik_Charging_Adjusted_Penalty> (1)
0

>  <i_epik_Tot_Q> (1)
0

>  <i_epik_Tot_abs_Q> (1)
0

>  <s_lp_Force_Field> (1)
S-OPLS

>  <r_lp_Energy> (1)
24.940891

>  <b_lp_Chiralities_Consistent> (1)
1

$$$$
