15653_1,4-dimethyl-2-ethylbenzene
                    3D
 Schrodinger Suite 2021-3.
 24 24  0  0  1  0            999 V2000
   -0.5633    1.4590    0.0179 C   0  0  0  0  0  0
   -0.0178    0.0192    0.0294 C   0  0  0  0  0  0
    1.4965   -0.0214   -0.0176 C   0  0  0  0  0  0
    2.1996   -0.0115   -1.2377 C   0  0  0  0  0  0
    3.5994   -0.0054   -1.1989 C   0  0  0  0  0  0
    4.2980   -0.0053    0.0050 C   0  0  0  0  0  0
    3.6121   -0.0118    1.2242 C   0  0  0  0  0  0
    2.2158   -0.0219    1.1840 C   0  0  0  0  0  0
    4.3653   -0.0098    2.5340 C   0  0  0  0  0  0
    1.4804   -0.0207   -2.5681 C   0  0  0  0  0  0
   -1.6578    1.4691    0.0509 H   0  0  0  0  0  0
   -0.2457    1.9959   -0.8818 H   0  0  0  0  0  0
   -0.1891    2.0180    0.8816 H   0  0  0  0  0  0
   -0.3650   -0.4863    0.9381 H   0  0  0  0  0  0
   -0.4433   -0.5378   -0.8125 H   0  0  0  0  0  0
    4.1526   -0.0022   -2.1352 H   0  0  0  0  0  0
    5.3855   -0.0007   -0.0025 H   0  0  0  0  0  0
    1.6617   -0.0298    2.1211 H   0  0  0  0  0  0
    3.6854   -0.0270    3.3905 H   0  0  0  0  0  0
    4.9971    0.8813    2.6270 H   0  0  0  0  0  0
    5.0265   -0.8804    2.6142 H   0  0  0  0  0  0
    2.1881    0.0594   -3.3977 H   0  0  0  0  0  0
    0.7699    0.8081   -2.6571 H   0  0  0  0  0  0
    0.9085   -0.9457   -2.7115 H   0  0  0  0  0  0
  1  2  1  0  0  0
  1 11  1  0  0  0
  1 12  1  0  0  0
  1 13  1  0  0  0
  2  3  1  0  0  0
  2 14  1  0  0  0
  2 15  1  0  0  0
  3  8  1  0  0  0
  3  4  2  0  0  0
  4  5  1  0  0  0
  4 10  1  0  0  0
  5  6  2  0  0  0
  5 16  1  0  0  0
  6  7  1  0  0  0
  6 17  1  0  0  0
  7  8  2  0  0  0
  7  9  1  0  0  0
  8 18  1  0  0  0
  9 19  1  0  0  0
  9 20  1  0  0  0
  9 21  1  0  0  0
 10 22  1  0  0  0
 10 23  1  0  0  0
 10 24  1  0  0  0
M  END
>  <i_m_Spin_multiplicity> (1)
1

>  <s_j_Task> (1)
Single Point

>  <s_j_QM_Method> (1)
DFT(b3lyp-d3)

>  <s_j_QM_Basis> (1)
cc-pvtz(-f)

>  <i_j_Number_of_canonical_orbitals> (1)
349

>  <i_j_Geometry_convergence_category> (1)
0

>  <r_j_Gas_Phase_Energy> (1)
-389.65642033144

>  <r_j_Final_Energy> (1)
-389.65642033144

>  <r_j_HOMO> (1)
-0.229427338049791

>  <r_j_LUMO> (1)
-0.00847283324918034

>  <r_j_Polarizability> (1)
116.375561149826

>  <r_j_QM_Dipole_(debye)> (1)
0.28481478841566

>  <r_j_QM_Dipole_X_(debye)> (1)
-0.283785448978216

>  <r_j_QM_Dipole_Y_(debye)> (1)
0.0235918065804045

>  <r_j_QM_Dipole_Z_(debye)> (1)
0.00535810701298501

>  <r_j_Lowest_Frequency_(cm-1)> (1)
108.246629953972

>  <r_j_Highest_Frequency_(cm-1)> (1)
3124.33790058518

>  <r_j_2nd_Lowest_Frequency_(cm-1)> (1)
135.291768610413

>  <i_j_Num_Negative_Frequencies> (1)
0

>  <r_j_Zero_Point_Energy_(kcal/mol)> (1)
132.652663934044

>  <r_j_Entropy_(cal/mol/K)_298.15K_1.00E+00atm> (1)
95.5209815498634

>  <r_j_Enthalpy_(kcal/mol)_298.15K_1.00E+00atm> (1)
6.85642649157616

>  <r_j_Free_Energy_(kcal/mol)_298.15K_1.00E+00atm> (1)
-21.6231541575156

>  <r_j_Internal_Energy_(kcal/mol)_298.15K_1.00E+00atm> (1)
6.26394090274888

>  <r_j_Heat_Capacity_(cal/mol/K)_298.15K_1.00E+00atm> (1)
39.1474423475295

>  <r_j_ln(Q)_298.15K_1.00E+00atm> (1)
36.4956626207821

>  <r_j_Total_Internal_Energy_(au)_298.15K_1.00E+00atm> (1)
-389.435042628826

>  <r_j_Total_Enthalpy_(au)_298.15K_1.00E+00atm> (1)
-389.434098442934

>  <r_j_Total_Free_Energy_(au)_298.15K_1.00E+00atm> (1)
-389.479483543894

>  <r_lp_tautomer_probability> (1)
1

>  <r_epik_Ionization_Penalty> (1)
  0.0000

>  <r_epik_Ionization_Penalty_Charging> (1)
  0.0000

>  <r_epik_Ionization_Penalty_Neutral> (1)
  0.0000

>  <r_epik_State_Penalty> (1)
  0.0000

>  <r_epik_Charging_Adjusted_Penalty> (1)
0

>  <i_epik_Tot_Q> (1)
0

>  <i_epik_Tot_abs_Q> (1)
0

>  <s_lp_Force_Field> (1)
S-OPLS

>  <r_lp_Energy> (1)
6.749644

>  <b_lp_Chiralities_Consistent> (1)
1

$$$$
