15659_Methoxysilane
                    3D
 Schrodinger Suite 2021-3.
 37 36  0  0  1  0            999 V2000
   -1.2369    1.9656    1.3897 C   0  0  0  0  0  0
   -0.9279    1.3498    0.1386 O   0  0  0  0  0  0
   -0.1621   -0.0937   -0.0404 Si  0  0  0  0  0  0
    1.6944   -0.0086    0.2081 C   0  0  0  0  0  0
    2.3607   -1.3658   -0.0713 C   0  0  0  0  0  0
    3.8735   -1.2915    0.1058 C   0  0  0  0  0  0
    4.5144   -2.6329   -0.1605 N   0  3  1  0  0  0
    6.0134   -2.7086   -0.0529 C   0  0  0  0  0  0
    6.3712   -4.1795    0.2233 C   0  0  0  0  0  0
    5.4531   -4.6704    1.2615 N   0  0  0  0  0  0
   -0.6686   -1.1963    1.0813 O   0  0  0  0  0  0
   -2.0009   -1.7117    1.1312 C   0  0  0  0  0  0
   -0.3898   -0.5867   -1.5911 O   0  0  0  0  0  0
   -1.5624   -0.3574   -2.3787 C   0  0  0  0  0  0
   -2.0998    2.6197    1.2438 H   0  0  0  0  0  0
   -0.3931    2.5732    1.7377 H   0  0  0  0  0  0
   -1.4796    1.2232    2.1591 H   0  0  0  0  0  0
    2.0971    0.7619   -0.4602 H   0  0  0  0  0  0
    1.9036    0.3128    1.2360 H   0  0  0  0  0  0
    1.9458   -2.1235    0.6050 H   0  0  0  0  0  0
    2.1226   -1.6813   -1.0957 H   0  0  0  0  0  0
    4.3301   -0.5746   -0.5823 H   0  0  0  0  0  0
    4.1489   -1.0154    1.1273 H   0  0  0  0  0  0
    4.2122   -3.3583    0.5362 H   0  0  0  0  0  0
    6.4688   -2.3158   -0.9633 H   0  0  0  0  0  0
    6.2971   -2.0708    0.7884 H   0  0  0  0  0  0
    6.2209   -4.7723   -0.6850 H   0  0  0  0  0  0
    7.4349   -4.2447    0.4797 H   0  0  0  0  0  0
    5.8088   -4.4862    2.1963 H   0  0  0  0  0  0
    5.3039   -5.6720    1.1899 H   0  0  0  0  0  0
   -2.1064   -2.2945    2.0494 H   0  0  0  0  0  0
   -2.2007   -2.3659    0.2740 H   0  0  0  0  0  0
   -2.7461   -0.9069    1.1423 H   0  0  0  0  0  0
   -2.3404   -1.0918   -2.1383 H   0  0  0  0  0  0
   -1.2899   -0.4691   -3.4311 H   0  0  0  0  0  0
   -1.9592    0.6495   -2.2157 H   0  0  0  0  0  0
    4.2113   -2.9710   -1.0789 H   0  0  0  0  0  0
  1  2  1  0  0  0
  1 15  1  0  0  0
  1 16  1  0  0  0
  1 17  1  0  0  0
  2  3  1  0  0  0
  3  4  1  0  0  0
  3 11  1  0  0  0
  3 13  1  0  0  0
  4  5  1  0  0  0
  4 18  1  0  0  0
  4 19  1  0  0  0
  5  6  1  0  0  0
  5 20  1  0  0  0
  5 21  1  0  0  0
  6  7  1  0  0  0
  6 22  1  0  0  0
  6 23  1  0  0  0
  7  8  1  0  0  0
  7 24  1  0  0  0
  7 37  1  0  0  0
  8  9  1  0  0  0
  8 25  1  0  0  0
  8 26  1  0  0  0
  9 10  1  0  0  0
  9 27  1  0  0  0
  9 28  1  0  0  0
 10 29  1  0  0  0
 10 30  1  0  0  0
 11 12  1  0  0  0
 12 31  1  0  0  0
 12 32  1  0  0  0
 12 33  1  0  0  0
 13 14  1  0  0  0
 14 34  1  0  0  0
 14 35  1  0  0  0
 14 36  1  0  0  0
M  END
>  <i_m_Spin_multiplicity> (1)
1

>  <s_j_Task> (1)
Single Point

>  <s_j_QM_Method> (1)
DFT(b3lyp-d3)

>  <s_j_QM_Basis> (1)
cc-pvtz(-f)

>  <i_j_Number_of_canonical_orbitals> (1)
532

>  <i_j_Geometry_convergence_category> (1)
3

>  <r_j_Gas_Phase_Energy> (1)
-943.571134439998

>  <r_j_Final_Energy> (1)
-943.571134439998

>  <r_j_HOMO> (1)
-0.368622929740985

>  <r_j_LUMO> (1)
-0.155066547172658

>  <r_j_Polarizability> (1)
143.448792472883

>  <r_j_QM_Dipole_(debye)> (1)
14.2284715560379

>  <r_j_QM_Dipole_X_(debye)> (1)
12.4177017253079

>  <r_j_QM_Dipole_Y_(debye)> (1)
-6.90565558232338

>  <r_j_QM_Dipole_Z_(debye)> (1)
0.749671701872839

>  <r_j_Lowest_Frequency_(cm-1)> (1)
38.1939930015256

>  <r_j_Highest_Frequency_(cm-1)> (1)
3542.20329037548

>  <r_j_2nd_Lowest_Frequency_(cm-1)> (1)
47.7539197374276

>  <i_j_Num_Negative_Frequencies> (1)
0

>  <r_j_Zero_Point_Energy_(kcal/mol)> (1)
207.491884061205

>  <r_j_Entropy_(cal/mol/K)_298.15K_1.00E+00atm> (1)
137.627206565709

>  <r_j_Enthalpy_(kcal/mol)_298.15K_1.00E+00atm> (1)
12.30156338254

>  <r_j_Free_Energy_(kcal/mol)_298.15K_1.00E+00atm> (1)
-28.7319882550261

>  <r_j_Internal_Energy_(kcal/mol)_298.15K_1.00E+00atm> (1)
11.7090777937127

>  <r_j_Heat_Capacity_(cal/mol/K)_298.15K_1.00E+00atm> (1)
66.9049244789085

>  <r_j_ln(Q)_298.15K_1.00E+00atm> (1)
48.4939866839567

>  <r_j_Total_Internal_Energy_(au)_298.15K_1.00E+00atm> (1)
-943.221815469792

>  <r_j_Total_Enthalpy_(au)_298.15K_1.00E+00atm> (1)
-943.2208712839

>  <r_j_Total_Free_Energy_(au)_298.15K_1.00E+00atm> (1)
-943.286262411204

>  <r_epik_Ionization_Penalty> (1)
  0.3981

>  <r_epik_Ionization_Penalty_Charging> (1)
  0.0011

>  <r_epik_Ionization_Penalty_Neutral> (1)
  0.3970

>  <r_epik_State_Penalty> (1)
  0.5136

>  <r_epik_Charging_Adjusted_Penalty> (1)
0.514716757474692

>  <i_epik_Tot_Q> (1)
1

>  <i_epik_Tot_abs_Q> (1)
1

>  <s_lp_Force_Field> (1)
S-OPLS

>  <r_lp_Energy> (1)
5.627927

>  <b_lp_Chiralities_Consistent> (1)
1

$$$$
