15658_4-Methylcyclopentene
                    3D
 Schrodinger Suite 2021-3.
 16 16  0  0  1  0            999 V2000
   -0.0630   -0.0088   -0.0001 C   0  0  0  0  0  0
    1.4639    0.0033   -0.0001 C   0  0  0  0  0  0
    2.1027    0.7089   -1.2280 C   0  0  0  0  0  0
    3.3825    1.2852   -0.6676 C   0  0  0  0  0  0
    3.3825    1.2848    0.6678 C   0  0  0  0  0  0
    2.1026    0.7085    1.2280 C   0  0  0  0  0  0
   -0.4585    1.0139    0.0001 H   0  0  0  0  0  0
   -0.4583   -0.5198    0.8847 H   0  0  0  0  0  0
   -0.4583   -0.5195   -0.8850 H   0  0  0  0  0  0
    1.8253   -1.0335   -0.0003 H   0  0  0  0  0  0
    2.2629    0.0219   -2.0677 H   0  0  0  0  0  0
    1.4535    1.5141   -1.6068 H   0  0  0  0  0  0
    4.1743    1.6872   -1.2928 H   0  0  0  0  0  0
    4.1741    1.6870    1.2932 H   0  0  0  0  0  0
    1.4533    1.5136    1.6070 H   0  0  0  0  0  0
    2.2627    0.0213    2.0676 H   0  0  0  0  0  0
  1  2  1  0  0  0
  1  7  1  0  0  0
  1  8  1  0  0  0
  1  9  1  0  0  0
  2  6  1  0  0  0
  2  3  1  0  0  0
  2 10  1  0  0  0
  3  4  1  0  0  0
  3 11  1  0  0  0
  3 12  1  0  0  0
  4  5  2  0  0  0
  4 13  1  0  0  0
  5  6  1  0  0  0
  5 14  1  0  0  0
  6 15  1  0  0  0
  6 16  1  0  0  0
M  END
>  <i_m_Spin_multiplicity> (1)
1

>  <s_j_Task> (1)
Single Point

>  <s_j_QM_Method> (1)
DFT(b3lyp-d3)

>  <s_j_QM_Basis> (1)
cc-pvtz(-f)

>  <i_j_Number_of_canonical_orbitals> (1)
227

>  <i_j_Geometry_convergence_category> (1)
0

>  <r_j_Gas_Phase_Energy> (1)
-234.731343380674

>  <r_j_Final_Energy> (1)
-234.731343380674

>  <r_j_HOMO> (1)
-0.236661564835709

>  <r_j_LUMO> (1)
0.0206445288237169

>  <r_j_Polarizability> (1)
67.7457391332373

>  <r_j_QM_Dipole_(debye)> (1)
0.20645063223794

>  <r_j_QM_Dipole_X_(debye)> (1)
-0.177647714888336

>  <r_j_QM_Dipole_Y_(debye)> (1)
-0.105181099056421

>  <r_j_QM_Dipole_Z_(debye)> (1)
-0.000298910824467685

>  <r_j_Lowest_Frequency_(cm-1)> (1)
145.037369136087

>  <r_j_Highest_Frequency_(cm-1)> (1)
3149.49153345328

>  <r_j_2nd_Lowest_Frequency_(cm-1)> (1)
307.125651181392

>  <i_j_Num_Negative_Frequencies> (1)
0

>  <r_j_Zero_Point_Energy_(kcal/mol)> (1)
90.3777405077197

>  <r_j_Entropy_(cal/mol/K)_298.15K_1.00E+00atm> (1)
74.8086616036253

>  <r_j_Enthalpy_(kcal/mol)_298.15K_1.00E+00atm> (1)
4.18984702195489

>  <r_j_Free_Energy_(kcal/mol)_298.15K_1.00E+00atm> (1)
-18.114355435166

>  <r_j_Internal_Energy_(kcal/mol)_298.15K_1.00E+00atm> (1)
3.59736143312761

>  <r_j_Heat_Capacity_(cal/mol/K)_298.15K_1.00E+00atm> (1)
22.2231278723203

>  <r_j_ln(Q)_298.15K_1.00E+00atm> (1)
30.5734954178722

>  <r_j_Total_Internal_Energy_(au)_298.15K_1.00E+00atm> (1)
-234.581584522149

>  <r_j_Total_Enthalpy_(au)_298.15K_1.00E+00atm> (1)
-234.580640336257

>  <r_j_Total_Free_Energy_(au)_298.15K_1.00E+00atm> (1)
-234.616184345588

>  <r_lp_tautomer_probability> (1)
1

>  <r_epik_Ionization_Penalty> (1)
  0.0000

>  <r_epik_Ionization_Penalty_Charging> (1)
  0.0000

>  <r_epik_Ionization_Penalty_Neutral> (1)
  0.0000

>  <r_epik_State_Penalty> (1)
  0.0000

>  <r_epik_Charging_Adjusted_Penalty> (1)
0

>  <i_epik_Tot_Q> (1)
0

>  <i_epik_Tot_abs_Q> (1)
0

>  <s_lp_Force_Field> (1)
S-OPLS

>  <r_lp_Energy> (1)
-6.77817

>  <b_lp_Chiralities_Consistent> (1)
1

$$$$
