15715_Tetradecylcyclohexane
                    3D
 Schrodinger Suite 2021-3.
 60 60  0  0  1  0            999 V2000
   -6.7035    4.2122    0.3328 C   0  0  0  0  0  0
   -5.1725    4.2157    0.2948 C   0  0  0  0  0  0
   -4.5672    2.8072    0.2574 C   0  0  0  0  0  0
   -3.0352    2.8076    0.2163 C   0  0  0  0  0  0
   -2.4177    1.4051    0.1717 C   0  0  0  0  0  0
   -0.8860    1.4257    0.1199 C   0  0  0  0  0  0
   -0.2475    0.0335    0.0580 C   0  0  0  0  0  0
    1.2831    0.0821   -0.0128 C   0  0  0  0  0  0
    1.9383   -1.3021   -0.1064 C   0  0  0  0  0  0
    3.4753   -1.2723   -0.1125 C   0  0  0  0  0  0
    4.0887   -0.5755   -1.3343 C   0  0  0  0  0  0
    5.6215   -0.5927   -1.3403 C   0  0  0  0  0  0
    6.2267    0.1217   -2.5550 C   0  0  0  0  0  0
    7.7602    0.1428   -2.5400 C   0  0  0  0  0  0
    8.4179    0.7560   -3.7881 C   0  0  0  0  0  0
    8.0736    2.2468   -3.9758 C   0  0  0  0  0  0
    8.7669    2.8521   -5.2067 C   0  0  0  0  0  0
   10.2886    2.6551   -5.1510 C   0  0  0  0  0  0
   10.6427    1.1706   -4.9801 C   0  0  0  0  0  0
    9.9475    0.5708   -3.7490 C   0  0  0  0  0  0
   -7.1083    5.2294    0.3586 H   0  0  0  0  0  0
   -7.0748    3.6828    1.2178 H   0  0  0  0  0  0
   -7.1185    3.7103   -0.5490 H   0  0  0  0  0  0
   -4.8275    4.7795   -0.5827 H   0  0  0  0  0  0
   -4.7836    4.7522    1.1711 H   0  0  0  0  0  0
   -4.9092    2.2411    1.1359 H   0  0  0  0  0  0
   -4.9557    2.2684   -0.6189 H   0  0  0  0  0  0
   -2.6972    3.3791   -0.6602 H   0  0  0  0  0  0
   -2.6489    3.3459    1.0938 H   0  0  0  0  0  0
   -2.7467    0.8324    1.0505 H   0  0  0  0  0  0
   -2.8046    0.8645   -0.7041 H   0  0  0  0  0  0
   -0.5631    2.0092   -0.7544 H   0  0  0  0  0  0
   -0.5006    1.9626    0.9986 H   0  0  0  0  0  0
   -0.5571   -0.5519    0.9356 H   0  0  0  0  0  0
   -0.6353   -0.5061   -0.8181 H   0  0  0  0  0  0
    1.5756    0.6918   -0.8774 H   0  0  0  0  0  0
    1.6718    0.6063    0.8726 H   0  0  0  0  0  0
    1.5961   -1.9144    0.7390 H   0  0  0  0  0  0
    1.5813   -1.8108   -1.0135 H   0  0  0  0  0  0
    3.8309   -0.7765    0.8023 H   0  0  0  0  0  0
    3.8535   -2.3025   -0.0650 H   0  0  0  0  0  0
    3.7143   -1.0558   -2.2501 H   0  0  0  0  0  0
    3.7485    0.4671   -1.3788 H   0  0  0  0  0  0
    5.9926   -0.1199   -0.4195 H   0  0  0  0  0  0
    5.9781   -1.6322   -1.3109 H   0  0  0  0  0  0
    5.8783   -0.3682   -3.4758 H   0  0  0  0  0  0
    5.8376    1.1473   -2.5912 H   0  0  0  0  0  0
    8.1070    0.6880   -1.6495 H   0  0  0  0  0  0
    8.1255   -0.8875   -2.4229 H   0  0  0  0  0  0
    8.0397    0.2137   -4.6704 H   0  0  0  0  0  0
    6.9896    2.3816   -4.0599 H   0  0  0  0  0  0
    8.3881    2.7953   -3.0748 H   0  0  0  0  0  0
    8.3750    2.3684   -6.1131 H   0  0  0  0  0  0
    8.5214    3.9176   -5.2916 H   0  0  0  0  0  0
   10.7611    3.0610   -6.0535 H   0  0  0  0  0  0
   10.6945    3.2225   -4.3011 H   0  0  0  0  0  0
   10.3260    0.6195   -5.8772 H   0  0  0  0  0  0
   11.7289    1.0419   -4.9021 H   0  0  0  0  0  0
   10.3373    1.0569   -2.8419 H   0  0  0  0  0  0
   10.1903   -0.4955   -3.6577 H   0  0  0  0  0  0
  1  2  1  0  0  0
  1 21  1  0  0  0
  1 22  1  0  0  0
  1 23  1  0  0  0
  2  3  1  0  0  0
  2 24  1  0  0  0
  2 25  1  0  0  0
  3  4  1  0  0  0
  3 26  1  0  0  0
  3 27  1  0  0  0
  4  5  1  0  0  0
  4 28  1  0  0  0
  4 29  1  0  0  0
  5  6  1  0  0  0
  5 30  1  0  0  0
  5 31  1  0  0  0
  6  7  1  0  0  0
  6 32  1  0  0  0
  6 33  1  0  0  0
  7  8  1  0  0  0
  7 34  1  0  0  0
  7 35  1  0  0  0
  8  9  1  0  0  0
  8 36  1  0  0  0
  8 37  1  0  0  0
  9 10  1  0  0  0
  9 38  1  0  0  0
  9 39  1  0  0  0
 10 11  1  0  0  0
 10 40  1  0  0  0
 10 41  1  0  0  0
 11 12  1  0  0  0
 11 42  1  0  0  0
 11 43  1  0  0  0
 12 13  1  0  0  0
 12 44  1  0  0  0
 12 45  1  0  0  0
 13 14  1  0  0  0
 13 46  1  0  0  0
 13 47  1  0  0  0
 14 15  1  0  0  0
 14 48  1  0  0  0
 14 49  1  0  0  0
 15 20  1  0  0  0
 15 16  1  0  0  0
 15 50  1  0  0  0
 16 17  1  0  0  0
 16 51  1  0  0  0
 16 52  1  0  0  0
 17 18  1  0  0  0
 17 53  1  0  0  0
 17 54  1  0  0  0
 18 19  1  0  0  0
 18 55  1  0  0  0
 18 56  1  0  0  0
 19 20  1  0  0  0
 19 57  1  0  0  0
 19 58  1  0  0  0
 20 59  1  0  0  0
 20 60  1  0  0  0
M  END
>  <i_m_Spin_multiplicity> (1)
1

>  <s_j_Task> (1)
Single Point

>  <s_j_QM_Method> (1)
DFT(b3lyp-d3)

>  <s_j_QM_Basis> (1)
cc-pvtz(-f)

>  <i_j_Number_of_canonical_orbitals> (1)
813

>  <i_j_Geometry_convergence_category> (1)
3

>  <r_j_Gas_Phase_Energy> (1)
-786.585010398752

>  <r_j_Final_Energy> (1)
-786.585010398752

>  <r_j_HOMO> (1)
-0.259952666653904

>  <r_j_LUMO> (1)
0.0360872104954941

>  <r_j_Polarizability> (1)
243.993748028958

>  <r_j_QM_Dipole_(debye)> (1)
0.0671286456006485

>  <r_j_QM_Dipole_X_(debye)> (1)
0.0313592516436335

>  <r_j_QM_Dipole_Y_(debye)> (1)
0.0139396967419171

>  <r_j_QM_Dipole_Z_(debye)> (1)
-0.057693476678669

>  <r_j_Lowest_Frequency_(cm-1)> (1)
25.1961805787501

>  <r_j_Highest_Frequency_(cm-1)> (1)
3045.31711588607

>  <r_j_2nd_Lowest_Frequency_(cm-1)> (1)
49.7183073372553

>  <i_j_Num_Negative_Frequencies> (1)
0

>  <r_j_Zero_Point_Energy_(kcal/mol)> (1)
356.275205005196

>  <r_j_Entropy_(cal/mol/K)_298.15K_1.00E+00atm> (1)
155.681217529364

>  <r_j_Enthalpy_(kcal/mol)_298.15K_1.00E+00atm> (1)
14.8794365983781

>  <r_j_Free_Energy_(kcal/mol)_298.15K_1.00E+00atm> (1)
-31.5369184080018

>  <r_j_Internal_Energy_(kcal/mol)_298.15K_1.00E+00atm> (1)
14.2869510095509

>  <r_j_Heat_Capacity_(cal/mol/K)_298.15K_1.00E+00atm> (1)
89.6809628844692

>  <r_j_ln(Q)_298.15K_1.00E+00atm> (1)
53.2281611615631

>  <r_j_Total_Internal_Energy_(au)_298.15K_1.00E+00atm> (1)
-785.994482010368

>  <r_j_Total_Enthalpy_(au)_298.15K_1.00E+00atm> (1)
-785.993537824476

>  <r_j_Total_Free_Energy_(au)_298.15K_1.00E+00atm> (1)
-786.067506995023

>  <r_lp_tautomer_probability> (1)
1

>  <r_epik_Ionization_Penalty> (1)
  0.0000

>  <r_epik_Ionization_Penalty_Charging> (1)
  0.0000

>  <r_epik_Ionization_Penalty_Neutral> (1)
  0.0000

>  <r_epik_State_Penalty> (1)
  0.0000

>  <r_epik_Charging_Adjusted_Penalty> (1)
0

>  <i_epik_Tot_Q> (1)
0

>  <i_epik_Tot_abs_Q> (1)
0

>  <s_lp_Force_Field> (1)
S-OPLS

>  <r_lp_Energy> (1)
14.858446

>  <b_lp_Chiralities_Consistent> (1)
1

$$$$
