15714_Dodecylcyclohexane
                    3D
 Schrodinger Suite 2021-3.
 54 54  0  0  1  0            999 V2000
   -4.7222    4.8667    0.3121 C   0  0  0  0  0  0
   -4.2193    3.4205    0.2791 C   0  0  0  0  0  0
   -2.6906    3.3154    0.2186 C   0  0  0  0  0  0
   -2.1838    1.8695    0.1825 C   0  0  0  0  0  0
   -0.6566    1.7525    0.1169 C   0  0  0  0  0  0
   -0.1664    0.3009    0.0733 C   0  0  0  0  0  0
    1.3583    0.1642   -0.0043 C   0  0  0  0  0  0
    1.8268   -1.2945   -0.0592 C   0  0  0  0  0  0
    3.3504   -1.4444   -0.1603 C   0  0  0  0  0  0
    3.8453   -2.8995   -0.1398 C   0  0  0  0  0  0
    3.3964   -3.7379   -1.3445 C   0  0  0  0  0  0
    3.9480   -5.1688   -1.3135 C   0  0  0  0  0  0
    3.6085   -6.0258   -2.5451 C   0  0  0  0  0  0
    4.3552   -7.3733   -2.4988 C   0  0  0  0  0  0
    4.0438   -8.2580   -3.7149 C   0  0  0  0  0  0
    2.5329   -8.4898   -3.8621 C   0  0  0  0  0  0
    1.7771   -7.1545   -3.9236 C   0  0  0  0  0  0
    2.0950   -6.2693   -2.7079 C   0  0  0  0  0  0
   -5.8154    4.9124    0.3551 H   0  0  0  0  0  0
   -4.4001    5.4164   -0.5799 H   0  0  0  0  0  0
   -4.3313    5.4001    1.1862 H   0  0  0  0  0  0
   -4.5828    2.8838    1.1662 H   0  0  0  0  0  0
   -4.6509    2.9004   -0.5870 H   0  0  0  0  0  0
   -2.3248    3.8526   -0.6683 H   0  0  0  0  0  0
   -2.2562    3.8334    1.0858 H   0  0  0  0  0  0
   -2.5504    1.3343    1.0702 H   0  0  0  0  0  0
   -2.6234    1.3535   -0.6832 H   0  0  0  0  0  0
   -0.2880    2.2882   -0.7696 H   0  0  0  0  0  0
   -0.2135    2.2621    0.9844 H   0  0  0  0  0  0
   -0.5334   -0.2326    0.9619 H   0  0  0  0  0  0
   -0.6188   -0.2070   -0.7906 H   0  0  0  0  0  0
    1.7270    0.6984   -0.8918 H   0  0  0  0  0  0
    1.8156    0.6642    0.8614 H   0  0  0  0  0  0
    1.4705   -1.8249    0.8359 H   0  0  0  0  0  0
    1.3458   -1.7873   -0.9140 H   0  0  0  0  0  0
    3.7024   -0.9541   -1.0793 H   0  0  0  0  0  0
    3.8156   -0.8982    0.6715 H   0  0  0  0  0  0
    4.9428   -2.9029   -0.0946 H   0  0  0  0  0  0
    3.5027   -3.3849    0.7855 H   0  0  0  0  0  0
    2.3018   -3.7667   -1.3818 H   0  0  0  0  0  0
    3.7213   -3.2420   -2.2710 H   0  0  0  0  0  0
    5.0416   -5.1236   -1.2095 H   0  0  0  0  0  0
    3.5809   -5.6799   -0.4109 H   0  0  0  0  0  0
    3.9561   -5.4839   -3.4401 H   0  0  0  0  0  0
    5.4357   -7.1967   -2.4246 H   0  0  0  0  0  0
    4.0637   -7.9057   -1.5808 H   0  0  0  0  0  0
    4.4229   -7.7683   -4.6234 H   0  0  0  0  0  0
    4.5724   -9.2151   -3.6325 H   0  0  0  0  0  0
    2.3220   -9.0910   -4.7546 H   0  0  0  0  0  0
    2.1715   -9.0689   -3.0001 H   0  0  0  0  0  0
    2.0649   -6.6208   -4.8408 H   0  0  0  0  0  0
    0.6965   -7.3286   -3.9908 H   0  0  0  0  0  0
    1.7179   -6.7554   -1.7953 H   0  0  0  0  0  0
    1.5611   -5.3167   -2.7966 H   0  0  0  0  0  0
  1  2  1  0  0  0
  1 19  1  0  0  0
  1 20  1  0  0  0
  1 21  1  0  0  0
  2  3  1  0  0  0
  2 22  1  0  0  0
  2 23  1  0  0  0
  3  4  1  0  0  0
  3 24  1  0  0  0
  3 25  1  0  0  0
  4  5  1  0  0  0
  4 26  1  0  0  0
  4 27  1  0  0  0
  5  6  1  0  0  0
  5 28  1  0  0  0
  5 29  1  0  0  0
  6  7  1  0  0  0
  6 30  1  0  0  0
  6 31  1  0  0  0
  7  8  1  0  0  0
  7 32  1  0  0  0
  7 33  1  0  0  0
  8  9  1  0  0  0
  8 34  1  0  0  0
  8 35  1  0  0  0
  9 10  1  0  0  0
  9 36  1  0  0  0
  9 37  1  0  0  0
 10 11  1  0  0  0
 10 38  1  0  0  0
 10 39  1  0  0  0
 11 12  1  0  0  0
 11 40  1  0  0  0
 11 41  1  0  0  0
 12 13  1  0  0  0
 12 42  1  0  0  0
 12 43  1  0  0  0
 13 18  1  0  0  0
 13 14  1  0  0  0
 13 44  1  0  0  0
 14 15  1  0  0  0
 14 45  1  0  0  0
 14 46  1  0  0  0
 15 16  1  0  0  0
 15 47  1  0  0  0
 15 48  1  0  0  0
 16 17  1  0  0  0
 16 49  1  0  0  0
 16 50  1  0  0  0
 17 18  1  0  0  0
 17 51  1  0  0  0
 17 52  1  0  0  0
 18 53  1  0  0  0
 18 54  1  0  0  0
M  END
>  <i_m_Spin_multiplicity> (1)
1

>  <s_j_Task> (1)
Single Point

>  <s_j_QM_Method> (1)
DFT(b3lyp-d3)

>  <s_j_QM_Basis> (1)
cc-pvtz(-f)

>  <i_j_Number_of_canonical_orbitals> (1)
732

>  <i_j_Geometry_convergence_category> (1)
0

>  <r_j_Gas_Phase_Energy> (1)
-707.926261514183

>  <r_j_Final_Energy> (1)
-707.926261514183

>  <r_j_HOMO> (1)
-0.290312880194182

>  <r_j_LUMO> (1)
0.0121085860464552

>  <r_j_Polarizability> (1)
218.646563828287

>  <r_j_QM_Dipole_(debye)> (1)
0.0664857697671513

>  <r_j_QM_Dipole_X_(debye)> (1)
-0.00569577683442063

>  <r_j_QM_Dipole_Y_(debye)> (1)
-0.0363893309964335

>  <r_j_QM_Dipole_Z_(debye)> (1)
-0.055350991837682

>  <r_j_Lowest_Frequency_(cm-1)> (1)
31.3113161897092

>  <r_j_Highest_Frequency_(cm-1)> (1)
3046.00295185797

>  <r_j_2nd_Lowest_Frequency_(cm-1)> (1)
55.494114076532

>  <i_j_Num_Negative_Frequencies> (1)
0

>  <r_j_Zero_Point_Energy_(kcal/mol)> (1)
320.548696002768

>  <r_j_Entropy_(cal/mol/K)_298.15K_1.00E+00atm> (1)
144.664675247362

>  <r_j_Enthalpy_(kcal/mol)_298.15K_1.00E+00atm> (1)
13.3479412275477

>  <r_j_Free_Energy_(kcal/mol)_298.15K_1.00E+00atm> (1)
-29.7838316974533

>  <r_j_Internal_Energy_(kcal/mol)_298.15K_1.00E+00atm> (1)
12.7554556387204

>  <r_j_Heat_Capacity_(cal/mol/K)_298.15K_1.00E+00atm> (1)
80.183601495074

>  <r_j_ln(Q)_298.15K_1.00E+00atm> (1)
50.26929305809

>  <r_j_Total_Internal_Energy_(au)_298.15K_1.00E+00atm> (1)
-707.395107535516

>  <r_j_Total_Enthalpy_(au)_298.15K_1.00E+00atm> (1)
-707.394163349624

>  <r_j_Total_Free_Energy_(au)_298.15K_1.00E+00atm> (1)
-707.46289820541

>  <r_lp_tautomer_probability> (1)
1

>  <r_epik_Ionization_Penalty> (1)
  0.0000

>  <r_epik_Ionization_Penalty_Charging> (1)
  0.0000

>  <r_epik_Ionization_Penalty_Neutral> (1)
  0.0000

>  <r_epik_State_Penalty> (1)
  0.0000

>  <r_epik_Charging_Adjusted_Penalty> (1)
0

>  <i_epik_Tot_Q> (1)
0

>  <i_epik_Tot_abs_Q> (1)
0

>  <s_lp_Force_Field> (1)
S-OPLS

>  <r_lp_Energy> (1)
13.8755

>  <b_lp_Chiralities_Consistent> (1)
1

$$$$
