15752_Bromodinitroaniline
                    3D
 Schrodinger Suite 2021-3.
 18 18  0  0  1  0            999 V2000
   -0.7300    1.2077   -0.1127 C   0  0  0  0  0  0
   -0.0482    0.0072   -0.0946 C   0  0  0  0  0  0
   -0.7296   -1.2142   -0.0126 C   0  0  0  0  0  0
   -2.1030   -1.2106    0.0485 C   0  0  0  0  0  0
   -2.8795   -0.0080    0.0329 C   0  0  0  0  0  0
   -2.1217    1.2048   -0.0503 C   0  0  0  0  0  0
   -2.7732    2.5129   -0.0717 N   0  3  1  0  0  0
   -2.0652    3.5121   -0.1493 O   0  0  0  0  0  0
   -4.0143    2.5648   -0.0112 O   0  5  0  0  0  0
   -4.2198   -0.0455    0.0894 N   0  0  0  0  0  0
   -3.0106   -2.8963    0.1613 Br  0  0  0  0  0  0
    1.4132    0.0040   -0.1590 N   0  3  1  0  0  0
    1.9788   -1.0906   -0.1386 O   0  0  0  0  0  0
    1.9842    1.0916   -0.2294 O   0  5  0  0  0  0
   -0.1953    2.1453   -0.1753 H   0  0  0  0  0  0
   -0.1663   -2.1382    0.0010 H   0  0  0  0  0  0
   -4.7212    0.8325    0.0889 H   0  0  0  0  0  0
   -4.6932   -0.9320    0.1645 H   0  0  0  0  0  0
  1  6  1  0  0  0
  1  2  2  0  0  0
  1 15  1  0  0  0
  2  3  1  0  0  0
  2 12  1  0  0  0
  3  4  2  0  0  0
  3 16  1  0  0  0
  4  5  1  0  0  0
  4 11  1  0  0  0
  5  6  2  0  0  0
  5 10  1  0  0  0
  6  7  1  0  0  0
  7  8  2  0  0  0
  7  9  1  0  0  0
 10 17  1  0  0  0
 10 18  1  0  0  0
 12 13  2  0  0  0
 12 14  1  0  0  0
M  END
>  <i_m_Spin_multiplicity> (1)
1

>  <s_j_Task> (1)
Single Point

>  <s_j_QM_Method> (1)
DFT(b3lyp-d3)

>  <s_j_QM_Basis> (1)
cc-pvtz(-f)

>  <i_j_Number_of_canonical_orbitals> (1)
365

>  <i_j_Geometry_convergence_category> (1)
0

>  <r_j_Gas_Phase_Energy> (1)
-3270.48480325895

>  <r_j_Final_Energy> (1)
-3270.48480325895

>  <r_j_HOMO> (1)
-0.266056472761304

>  <r_j_LUMO> (1)
-0.116106400734064

>  <r_j_Polarizability> (1)
134.681824155373

>  <r_j_QM_Dipole_(debye)> (1)
5.38575022091909

>  <r_j_QM_Dipole_X_(debye)> (1)
-4.43691077098382

>  <r_j_QM_Dipole_Y_(debye)> (1)
-3.03255472200216

>  <r_j_QM_Dipole_Z_(debye)> (1)
0.351767125411309

>  <r_j_Lowest_Frequency_(cm-1)> (1)
-1346.54689141156

>  <r_j_Highest_Frequency_(cm-1)> (1)
3638.96231130855

>  <r_j_2nd_Lowest_Frequency_(cm-1)> (1)
89.4339962827679

>  <i_j_Num_Negative_Frequencies> (1)
1

>  <r_j_Zero_Point_Energy_(kcal/mol)> (1)
71.0312148550269

>  <r_j_Entropy_(cal/mol/K)_298.15K_1.00E+00atm> (1)
101.925168519288

>  <r_j_Enthalpy_(kcal/mol)_298.15K_1.00E+00atm> (1)
6.99626360853921

>  <r_j_Free_Energy_(kcal/mol)_298.15K_1.00E+00atm> (1)
-23.3927253854865

>  <r_j_Internal_Energy_(kcal/mol)_298.15K_1.00E+00atm> (1)
6.40377801971193

>  <r_j_Heat_Capacity_(cal/mol/K)_298.15K_1.00E+00atm> (1)
40.0652652677379

>  <r_j_ln(Q)_298.15K_1.00E+00atm> (1)
39.4823533713089

>  <r_j_Total_Internal_Energy_(au)_298.15K_1.00E+00atm> (1)
-3270.36140274218

>  <r_j_Total_Enthalpy_(au)_298.15K_1.00E+00atm> (1)
-3270.36045855629

>  <r_j_Total_Free_Energy_(au)_298.15K_1.00E+00atm> (1)
-3270.40888649315

>  <r_epik_Ionization_Penalty> (1)
  0.0006

>  <r_epik_Ionization_Penalty_Charging> (1)
  0.0000

>  <r_epik_Ionization_Penalty_Neutral> (1)
  0.0006

>  <r_epik_State_Penalty> (1)
  0.0004

>  <r_epik_Charging_Adjusted_Penalty> (1)
0.000359937

>  <i_epik_Tot_Q> (1)
0

>  <i_epik_Tot_abs_Q> (1)
4

>  <s_lp_Force_Field> (1)
S-OPLS

>  <r_lp_Energy> (1)
22.6619

>  <b_lp_Chiralities_Consistent> (1)
1

$$$$
