15816_Undecanedioic acid
                    3D
 Schrodinger Suite 2021-3.
 33 32  0  0  1  0            999 V2000
    0.0400   -0.0636   -0.2576 C   0  0  0  0  0  0
    1.5748   -0.0976   -0.2176 C   0  0  0  0  0  0
    2.1776   -1.5100   -0.2130 C   0  0  0  0  0  0
    3.7089   -1.5403   -0.1046 C   0  0  0  0  0  0
    4.3195   -2.9434   -0.0857 C   0  0  0  0  0  0
    5.8593   -2.9883    0.2582 C   0  0  0  0  0  0
    6.4665   -4.0051   -0.1638 O   0  0  0  0  0  0
    6.2953   -2.0259    0.9435 O   0  5  0  0  0  0
   -0.5536    1.3518   -0.2225 C   0  0  0  0  0  0
   -2.0866    1.3972   -0.1710 C   0  0  0  0  0  0
   -2.6538    2.8185   -0.0607 C   0  0  0  0  0  0
   -4.1807    2.8586    0.0608 C   0  0  0  0  0  0
   -4.9785    2.4602   -1.2404 C   0  0  0  0  0  0
   -6.2237    2.4002   -1.0857 O   0  0  0  0  0  0
   -4.2916    2.2696   -2.2794 O   0  5  0  0  0  0
   -0.3168   -0.5857   -1.1573 H   0  0  0  0  0  0
   -0.3521   -0.6381    0.5955 H   0  0  0  0  0  0
    1.9737    0.4647   -1.0753 H   0  0  0  0  0  0
    1.9227    0.4404    0.6771 H   0  0  0  0  0  0
    1.7464   -2.0788    0.6258 H   0  0  0  0  0  0
    1.8576   -2.0402   -1.1236 H   0  0  0  0  0  0
    4.1424   -0.9658   -0.9374 H   0  0  0  0  0  0
    4.0430   -1.0282    0.8056 H   0  0  0  0  0  0
    3.8013   -3.5500    0.6761 H   0  0  0  0  0  0
    4.1583   -3.4619   -1.0406 H   0  0  0  0  0  0
   -0.1454    1.8828    0.6524 H   0  0  0  0  0  0
   -0.2029    1.9133   -1.1013 H   0  0  0  0  0  0
   -2.5203    0.9460   -1.0702 H   0  0  0  0  0  0
   -2.4316    0.8004    0.6889 H   0  0  0  0  0  0
   -2.1830    3.3278    0.7984 H   0  0  0  0  0  0
   -2.3744    3.3709   -0.9665 H   0  0  0  0  0  0
   -4.5226    2.2089    0.8802 H   0  0  0  0  0  0
   -4.5098    3.8721    0.3361 H   0  0  0  0  0  0
  1  2  1  0  0  0
  1  9  1  0  0  0
  1 16  1  0  0  0
  1 17  1  0  0  0
  2  3  1  0  0  0
  2 18  1  0  0  0
  2 19  1  0  0  0
  3  4  1  0  0  0
  3 20  1  0  0  0
  3 21  1  0  0  0
  4  5  1  0  0  0
  4 22  1  0  0  0
  4 23  1  0  0  0
  5  6  1  0  0  0
  5 24  1  0  0  0
  5 25  1  0  0  0
  6  7  2  0  0  0
  6  8  1  0  0  0
  9 10  1  0  0  0
  9 26  1  0  0  0
  9 27  1  0  0  0
 10 11  1  0  0  0
 10 28  1  0  0  0
 10 29  1  0  0  0
 11 12  1  0  0  0
 11 30  1  0  0  0
 11 31  1  0  0  0
 12 13  1  0  0  0
 12 32  1  0  0  0
 12 33  1  0  0  0
 13 14  2  0  0  0
 13 15  1  0  0  0
M  END
>  <i_m_Spin_multiplicity> (1)
1

>  <s_j_Task> (1)
Single Point

>  <s_j_QM_Method> (1)
DFT(b3lyp-d3)

>  <s_j_QM_Basis> (1)
cc-pvtz(-f)

>  <i_j_Number_of_canonical_orbitals> (1)
504

>  <i_j_Geometry_convergence_category> (1)
3

>  <r_j_Gas_Phase_Energy> (1)
-731.271764843094

>  <r_j_Final_Energy> (1)
-731.271764843094

>  <r_j_HOMO> (1)
0.0325527146579436

>  <r_j_LUMO> (1)
0.205892205871641

>  <r_j_Polarizability> (1)
154.973331021934

>  <r_j_QM_Dipole_(debye)> (1)
4.45782788639583

>  <r_j_QM_Dipole_X_(debye)> (1)
-2.04951739478409

>  <r_j_QM_Dipole_Y_(debye)> (1)
3.13967029469064

>  <r_j_QM_Dipole_Z_(debye)> (1)
2.41126073949768

>  <r_j_Lowest_Frequency_(cm-1)> (1)
37.2717843154258

>  <r_j_Highest_Frequency_(cm-1)> (1)
3031.75522022983

>  <r_j_2nd_Lowest_Frequency_(cm-1)> (1)
47.6047172661581

>  <i_j_Num_Negative_Frequencies> (1)
0

>  <r_j_Zero_Point_Energy_(kcal/mol)> (1)
173.986315173456

>  <r_j_Entropy_(cal/mol/K)_298.15K_1.00E+00atm> (1)
127.256298856695

>  <r_j_Enthalpy_(kcal/mol)_298.15K_1.00E+00atm> (1)
10.6195593538259

>  <r_j_Free_Energy_(kcal/mol)_298.15K_1.00E+00atm> (1)
-27.3219061502979

>  <r_j_Internal_Energy_(kcal/mol)_298.15K_1.00E+00atm> (1)
10.0270737649986

>  <r_j_Heat_Capacity_(cal/mol/K)_298.15K_1.00E+00atm> (1)
58.8520266802689

>  <r_j_ln(Q)_298.15K_1.00E+00atm> (1)
46.1140433885944

>  <r_j_Total_Internal_Energy_(au)_298.15K_1.00E+00atm> (1)
-730.978520840038

>  <r_j_Total_Enthalpy_(au)_298.15K_1.00E+00atm> (1)
-730.977576654146

>  <r_j_Total_Free_Energy_(au)_298.15K_1.00E+00atm> (1)
-731.038040228511

>  <r_epik_Ionization_Penalty> (1)
  0.0097

>  <r_epik_Ionization_Penalty_Charging> (1)
  0.0097

>  <r_epik_Ionization_Penalty_Neutral> (1)
  0.0000

>  <r_epik_State_Penalty> (1)
  0.0074

>  <r_epik_Charging_Adjusted_Penalty> (1)
0.0170654973104493

>  <i_epik_Tot_Q> (1)
-2

>  <i_epik_Tot_abs_Q> (1)
2

>  <s_lp_Force_Field> (1)
S-OPLS

>  <r_lp_Energy> (1)
7.973659

>  <b_lp_Chiralities_Consistent> (1)
1

$$$$
