15910_Chlorothalonil
                    3D
 Schrodinger Suite 2021-3.
 14 14  0  0  1  0            999 V2000
    0.0520    0.0052    0.0000 C   0  0  0  0  0  0
   -1.1099    0.0030    0.0000 N   0  0  0  0  0  0
    1.4822    0.0106    0.0000 C   0  0  0  0  0  0
    2.1846    1.2272    0.0000 C   0  0  0  0  0  0
    3.5894    1.2358    0.0000 C   0  0  0  0  0  0
    4.2923    0.0120    0.0000 C   0  0  0  0  0  0
    3.6028   -1.2118    0.0000 C   0  0  0  0  0  0
    2.1981   -1.2057    0.0000 C   0  0  0  0  0  0
    1.3106   -2.6924    0.0000 Cl  0  0  0  0  0  0
    4.4740   -2.7101    0.0000 Cl  0  0  0  0  0  0
    6.0234    0.0478    0.0000 Cl  0  0  0  0  0  0
    4.3015    2.4762    0.0000 C   0  0  0  0  0  0
    4.8776    3.4852    0.0000 N   0  0  0  0  0  0
    1.3141    2.7247    0.0000 Cl  0  0  0  0  0  0
  1  2  3  0  0  0
  1  3  1  0  0  0
  3  8  1  0  0  0
  3  4  2  0  0  0
  4  5  1  0  0  0
  4 14  1  0  0  0
  5  6  2  0  0  0
  5 12  1  0  0  0
  6  7  1  0  0  0
  6 11  1  0  0  0
  7  8  2  0  0  0
  7 10  1  0  0  0
  8  9  1  0  0  0
 12 13  3  0  0  0
M  END
>  <i_m_Spin_multiplicity> (1)
1

>  <s_j_Task> (1)
Single Point

>  <s_j_QM_Method> (1)
DFT(b3lyp-d3)

>  <s_j_QM_Basis> (1)
cc-pvtz(-f)

>  <i_j_Number_of_canonical_orbitals> (1)
330

>  <i_j_Geometry_convergence_category> (1)
0

>  <r_j_Gas_Phase_Energy> (1)
-2255.3595756036

>  <r_j_Final_Energy> (1)
-2255.3595756036

>  <r_j_HOMO> (1)
-0.294810940775838

>  <r_j_LUMO> (1)
-0.117762656546123

>  <r_j_Polarizability> (1)
154.131427469416

>  <r_j_QM_Dipole_(debye)> (1)
3.16656655516228

>  <r_j_QM_Dipole_X_(debye)> (1)
1.59222402250691

>  <r_j_QM_Dipole_Y_(debye)> (1)
-2.73714566846791

>  <r_j_QM_Dipole_Z_(debye)> (1)
3.40010597645444e-06

>  <r_j_Lowest_Frequency_(cm-1)> (1)
74.4618232005369

>  <r_j_Highest_Frequency_(cm-1)> (1)
2267.7727041741

>  <r_j_2nd_Lowest_Frequency_(cm-1)> (1)
79.5990667295156

>  <i_j_Num_Negative_Frequencies> (1)
0

>  <r_j_Zero_Point_Energy_(kcal/mol)> (1)
36.5810870438882

>  <r_j_Entropy_(cal/mol/K)_298.15K_1.00E+00atm> (1)
111.607827353083

>  <r_j_Enthalpy_(kcal/mol)_298.15K_1.00E+00atm> (1)
8.39523272272585

>  <r_j_Free_Energy_(kcal/mol)_298.15K_1.00E+00atm> (1)
-24.8806410025957

>  <r_j_Internal_Energy_(kcal/mol)_298.15K_1.00E+00atm> (1)
7.80274713389858

>  <r_j_Heat_Capacity_(cal/mol/K)_298.15K_1.00E+00atm> (1)
44.1444830954289

>  <r_j_ln(Q)_298.15K_1.00E+00atm> (1)
41.9936644397423

>  <r_j_Total_Internal_Energy_(au)_298.15K_1.00E+00atm> (1)
-2255.28884546119

>  <r_j_Total_Enthalpy_(au)_298.15K_1.00E+00atm> (1)
-2255.2879012753

>  <r_j_Total_Free_Energy_(au)_298.15K_1.00E+00atm> (1)
-2255.34092975585

>  <r_lp_tautomer_probability> (1)
1

>  <r_epik_Ionization_Penalty> (1)
  0.0000

>  <r_epik_Ionization_Penalty_Charging> (1)
  0.0000

>  <r_epik_Ionization_Penalty_Neutral> (1)
  0.0000

>  <r_epik_State_Penalty> (1)
  0.0000

>  <r_epik_Charging_Adjusted_Penalty> (1)
0

>  <i_epik_Tot_Q> (1)
0

>  <i_epik_Tot_abs_Q> (1)
0

>  <s_lp_Force_Field> (1)
S-OPLS

>  <r_lp_Energy> (1)
18.0551

>  <b_lp_Chiralities_Consistent> (1)
1

$$$$
