15979_Pristane
                    3D
 Schrodinger Suite 2021-3.
 59 58  0  0  1  0            999 V2000
   -2.2384    6.4166   -2.2550 C   0  0  0  0  0  0
   -0.7311    6.2564   -2.0071 C   0  0  0  0  0  0
    0.0639    7.2055   -2.9153 C   0  0  0  0  0  0
   -0.2555    4.8035   -2.1983 C   0  0  0  0  0  0
   -0.8712    3.7866   -1.2289 C   0  0  0  0  0  0
   -0.2768    2.3801   -1.3860 C   0  0  0  0  0  0
   -0.7448    1.3583   -0.3313 C   0  0  0  0  0  0
   -2.2690    1.1633   -0.3552 C   0  0  0  0  0  0
   -0.0407   -0.0036   -0.4922 C   0  0  0  0  0  0
    1.4898    0.0284   -0.3815 C   0  0  0  0  0  0
    2.0959   -1.3773   -0.2689 C   0  0  0  0  0  0
    3.6317   -1.4387   -0.3836 C   0  0  0  0  0  0
    4.3213   -0.5135    0.6310 C   0  0  0  0  0  0
    4.1607   -2.8777   -0.2213 C   0  0  0  0  0  0
    3.6422   -3.8951   -1.2461 C   0  0  0  0  0  0
    4.3299   -5.2603   -1.1142 C   0  0  0  0  0  0
    3.7500   -6.3737   -2.0064 C   0  0  0  0  0  0
    4.4216   -7.7179   -1.6910 C   0  0  0  0  0  0
    3.8768   -6.0483   -3.5020 C   0  0  0  0  0  0
   -2.4960    6.1074   -3.2759 H   0  0  0  0  0  0
   -2.5463    7.4613   -2.1371 H   0  0  0  0  0  0
   -2.8368    5.8162   -1.5633 H   0  0  0  0  0  0
   -0.5273    6.5375   -0.9625 H   0  0  0  0  0  0
   -0.1060    6.9641   -3.9721 H   0  0  0  0  0  0
    1.1406    7.1325   -2.7267 H   0  0  0  0  0  0
   -0.2348    8.2483   -2.7614 H   0  0  0  0  0  0
   -0.4638    4.4938   -3.2336 H   0  0  0  0  0  0
    0.8381    4.7767   -2.0900 H   0  0  0  0  0  0
   -0.7139    4.1313   -0.1961 H   0  0  0  0  0  0
   -1.9557    3.7485   -1.3769 H   0  0  0  0  0  0
   -0.5132    1.9922   -2.3886 H   0  0  0  0  0  0
    0.8163    2.4636   -1.3433 H   0  0  0  0  0  0
   -0.4694    1.7563    0.6585 H   0  0  0  0  0  0
   -2.5994    0.8230   -1.3446 H   0  0  0  0  0  0
   -2.8072    2.0870   -0.1238 H   0  0  0  0  0  0
   -2.5798    0.4088    0.3758 H   0  0  0  0  0  0
   -0.4328   -0.6855    0.2757 H   0  0  0  0  0  0
   -0.3266   -0.4452   -1.4586 H   0  0  0  0  0  0
    1.9216    0.5349   -1.2545 H   0  0  0  0  0  0
    1.7721    0.6302    0.4921 H   0  0  0  0  0  0
    1.7915   -1.8260    0.6889 H   0  0  0  0  0  0
    1.6534   -2.0063   -1.0515 H   0  0  0  0  0  0
    3.9031   -1.0942   -1.3942 H   0  0  0  0  0  0
    4.0264   -0.7741    1.6554 H   0  0  0  0  0  0
    4.0667    0.5377    0.4682 H   0  0  0  0  0  0
    5.4112   -0.6031    0.5665 H   0  0  0  0  0  0
    5.2581   -2.8523   -0.2790 H   0  0  0  0  0  0
    3.9219   -3.2312    0.7931 H   0  0  0  0  0  0
    2.5595   -4.0319   -1.1287 H   0  0  0  0  0  0
    3.7930   -3.4923   -2.2563 H   0  0  0  0  0  0
    5.4030   -5.1513   -1.3320 H   0  0  0  0  0  0
    4.2670   -5.5846   -0.0657 H   0  0  0  0  0  0
    2.6790   -6.4659   -1.7690 H   0  0  0  0  0  0
    5.4954   -7.6762   -1.9129 H   0  0  0  0  0  0
    3.9910   -8.5291   -2.2881 H   0  0  0  0  0  0
    4.3110   -7.9827   -0.6337 H   0  0  0  0  0  0
    4.9292   -5.9024   -3.7766 H   0  0  0  0  0  0
    3.3319   -5.1392   -3.7732 H   0  0  0  0  0  0
    3.4837   -6.8655   -4.1166 H   0  0  0  0  0  0
  1  2  1  0  0  0
  1 20  1  0  0  0
  1 21  1  0  0  0
  1 22  1  0  0  0
  2  3  1  0  0  0
  2  4  1  0  0  0
  2 23  1  0  0  0
  3 24  1  0  0  0
  3 25  1  0  0  0
  3 26  1  0  0  0
  4  5  1  0  0  0
  4 27  1  0  0  0
  4 28  1  0  0  0
  5  6  1  0  0  0
  5 29  1  0  0  0
  5 30  1  0  0  0
  6  7  1  0  0  0
  6 31  1  0  0  0
  6 32  1  0  0  0
  7  8  1  0  0  0
  7  9  1  0  0  0
  7 33  1  0  0  0
  8 34  1  0  0  0
  8 35  1  0  0  0
  8 36  1  0  0  0
  9 10  1  0  0  0
  9 37  1  0  0  0
  9 38  1  0  0  0
 10 11  1  0  0  0
 10 39  1  0  0  0
 10 40  1  0  0  0
 11 12  1  0  0  0
 11 41  1  0  0  0
 11 42  1  0  0  0
 12 13  1  0  0  0
 12 14  1  0  0  0
 12 43  1  0  0  0
 13 44  1  0  0  0
 13 45  1  0  0  0
 13 46  1  0  0  0
 14 15  1  0  0  0
 14 47  1  0  0  0
 14 48  1  0  0  0
 15 16  1  0  0  0
 15 49  1  0  0  0
 15 50  1  0  0  0
 16 17  1  0  0  0
 16 51  1  0  0  0
 16 52  1  0  0  0
 17 18  1  0  0  0
 17 19  1  0  0  0
 17 53  1  0  0  0
 18 54  1  0  0  0
 18 55  1  0  0  0
 18 56  1  0  0  0
 19 57  1  0  0  0
 19 58  1  0  0  0
 19 59  1  0  0  0
M  END
>  <i_m_Spin_multiplicity> (1)
1

>  <s_j_Task> (1)
Single Point

>  <s_j_QM_Method> (1)
DFT(b3lyp-d3)

>  <s_j_QM_Basis> (1)
cc-pvtz(-f)

>  <i_j_Number_of_canonical_orbitals> (1)
791

>  <i_j_Geometry_convergence_category> (1)
3

>  <r_j_Gas_Phase_Energy> (1)
-748.465107137609

>  <r_j_Final_Energy> (1)
-748.465107137609

>  <r_j_HOMO> (1)
-0.268352411357181

>  <r_j_LUMO> (1)
0.0105235248247618

>  <r_j_Polarizability> (1)
235.118553117386

>  <r_j_QM_Dipole_(debye)> (1)
0.121410652050152

>  <r_j_QM_Dipole_X_(debye)> (1)
-0.0406049644780123

>  <r_j_QM_Dipole_Y_(debye)> (1)
0.0470668921941707

>  <r_j_QM_Dipole_Z_(debye)> (1)
0.104290416386956

>  <r_j_Lowest_Frequency_(cm-1)> (1)
27.9193135359047

>  <r_j_Highest_Frequency_(cm-1)> (1)
3056.38378532817

>  <r_j_2nd_Lowest_Frequency_(cm-1)> (1)
44.2742216252518

>  <i_j_Num_Negative_Frequencies> (1)
0

>  <r_j_Zero_Point_Energy_(kcal/mol)> (1)
349.891042713256

>  <r_j_Entropy_(cal/mol/K)_298.15K_1.00E+00atm> (1)
157.269596587644

>  <r_j_Enthalpy_(kcal/mol)_298.15K_1.00E+00atm> (1)
15.3900473352336

>  <r_j_Free_Energy_(kcal/mol)_298.15K_1.00E+00atm> (1)
-31.4998828873726

>  <r_j_Internal_Energy_(kcal/mol)_298.15K_1.00E+00atm> (1)
14.7975617464063

>  <r_j_Heat_Capacity_(cal/mol/K)_298.15K_1.00E+00atm> (1)
92.4268730097678

>  <r_j_ln(Q)_298.15K_1.00E+00atm> (1)
53.1656524333719

>  <r_j_Total_Internal_Energy_(au)_298.15K_1.00E+00atm> (1)
-747.883938849488

>  <r_j_Total_Enthalpy_(au)_298.15K_1.00E+00atm> (1)
-747.882994663595

>  <r_j_Total_Free_Energy_(au)_298.15K_1.00E+00atm> (1)
-747.957718524293

>  <r_lp_tautomer_probability> (1)
1

>  <r_epik_Ionization_Penalty> (1)
  0.0000

>  <r_epik_Ionization_Penalty_Charging> (1)
  0.0000

>  <r_epik_Ionization_Penalty_Neutral> (1)
  0.0000

>  <r_epik_State_Penalty> (1)
  0.0000

>  <r_epik_Charging_Adjusted_Penalty> (1)
0

>  <i_epik_Tot_Q> (1)
0

>  <i_epik_Tot_abs_Q> (1)
0

>  <s_lp_Force_Field> (1)
S-OPLS

>  <r_lp_Energy> (1)
11.631945

>  <b_lp_Chiralities_Consistent> (1)
1

$$$$
