162093_Methylvinylbis(n-methylacetamido) silane
                    3D
 Schrodinger Suite 2021-3.
 32 31  0  0  1  0            999 V2000
   -0.4106    1.3449    0.4774 C   0  0  0  0  0  0
    0.2574    0.0943    0.0732 N   0  0  0  0  0  0
   -0.6163   -0.9858   -0.0260 C   0  0  0  0  0  0
   -0.0639   -2.3370   -0.4560 C   0  0  0  0  0  0
   -1.8037   -0.8627    0.2456 O   0  0  0  0  0  0
    2.0284    0.0132   -0.0256 Si  0  0  0  0  0  0
    2.6042   -0.1633   -1.8046 C   0  0  0  0  0  0
    2.7276    1.5960    0.6829 C   0  0  0  0  0  0
    3.4840    2.4519   -0.0166 C   0  0  0  0  0  0
    2.5707   -1.3896    0.9177 N   0  0  0  0  0  0
    3.4859   -2.3770    0.3191 C   0  0  0  0  0  0
    2.0666   -1.7826    2.1555 C   0  0  0  0  0  0
    1.1380   -0.8357    2.9021 C   0  0  0  0  0  0
    2.3437   -2.8753    2.6330 O   0  0  0  0  0  0
   -1.2824    1.5197   -0.1561 H   0  0  0  0  0  0
    0.2814    2.1818    0.3811 H   0  0  0  0  0  0
   -0.7627    1.2831    1.5130 H   0  0  0  0  0  0
    0.7621   -2.2735   -1.1666 H   0  0  0  0  0  0
   -0.8857   -2.8951   -0.9055 H   0  0  0  0  0  0
    0.2880   -2.8933    0.4185 H   0  0  0  0  0  0
    2.3115   -1.1156   -2.2535 H   0  0  0  0  0  0
    3.6903   -0.0677   -1.8973 H   0  0  0  0  0  0
    2.1460    0.6358   -2.3971 H   0  0  0  0  0  0
    2.5520    1.8314    1.7336 H   0  0  0  0  0  0
    3.7130    2.3005   -1.0691 H   0  0  0  0  0  0
    3.9110    3.3476    0.4300 H   0  0  0  0  0  0
    4.1830   -2.7357    1.0778 H   0  0  0  0  0  0
    4.0478   -1.9234   -0.4969 H   0  0  0  0  0  0
    2.9368   -3.2454   -0.0624 H   0  0  0  0  0  0
    1.3412    0.2224    2.7288 H   0  0  0  0  0  0
    1.2415   -1.0540    3.9655 H   0  0  0  0  0  0
    0.0996   -1.0290    2.6149 H   0  0  0  0  0  0
  1  2  1  0  0  0
  1 15  1  0  0  0
  1 16  1  0  0  0
  1 17  1  0  0  0
  2  3  1  0  0  0
  2  6  1  0  0  0
  3  4  1  0  0  0
  3  5  2  0  0  0
  4 18  1  0  0  0
  4 19  1  0  0  0
  4 20  1  0  0  0
  6  7  1  0  0  0
  6  8  1  0  0  0
  6 10  1  0  0  0
  7 21  1  0  0  0
  7 22  1  0  0  0
  7 23  1  0  0  0
  8  9  2  0  0  0
  8 24  1  0  0  0
  9 25  1  0  0  0
  9 26  1  0  0  0
 10 11  1  0  0  0
 10 12  1  0  0  0
 11 27  1  0  0  0
 11 28  1  0  0  0
 11 29  1  0  0  0
 12 13  1  0  0  0
 12 14  2  0  0  0
 13 30  1  0  0  0
 13 31  1  0  0  0
 13 32  1  0  0  0
M  END
>  <i_m_Spin_multiplicity> (1)
1

>  <s_j_Task> (1)
Single Point

>  <s_j_QM_Method> (1)
DFT(b3lyp-d3)

>  <s_j_QM_Basis> (1)
cc-pvtz(-f)

>  <i_j_Number_of_canonical_orbitals> (1)
485

>  <i_j_Geometry_convergence_category> (1)
1

>  <r_j_Gas_Phase_Energy> (1)
-903.58983556693

>  <r_j_Final_Energy> (1)
-903.58983556693

>  <r_j_HOMO> (1)
-0.263103755684362

>  <r_j_LUMO> (1)
-0.0374014615123706

>  <r_j_Polarizability> (1)
147.822107135976

>  <r_j_QM_Dipole_(debye)> (1)
5.23454070125904

>  <r_j_QM_Dipole_X_(debye)> (1)
3.13815899031778

>  <r_j_QM_Dipole_Y_(debye)> (1)
3.31059126077747

>  <r_j_QM_Dipole_Z_(debye)> (1)
-2.56755915388311

>  <r_j_Lowest_Frequency_(cm-1)> (1)
76.9601172449627

>  <r_j_Highest_Frequency_(cm-1)> (1)
3153.84995780004

>  <r_j_2nd_Lowest_Frequency_(cm-1)> (1)
84.274371246106

>  <i_j_Num_Negative_Frequencies> (1)
0

>  <r_j_Zero_Point_Energy_(kcal/mol)> (1)
167.196522159615

>  <r_j_Entropy_(cal/mol/K)_298.15K_1.00E+00atm> (1)
127.021406149599

>  <r_j_Enthalpy_(kcal/mol)_298.15K_1.00E+00atm> (1)
11.3382914900936

>  <r_j_Free_Energy_(kcal/mol)_298.15K_1.00E+00atm> (1)
-26.5331407534093

>  <r_j_Internal_Energy_(kcal/mol)_298.15K_1.00E+00atm> (1)
10.7458059012663

>  <r_j_Heat_Capacity_(cal/mol/K)_298.15K_1.00E+00atm> (1)
64.478597826159

>  <r_j_ln(Q)_298.15K_1.00E+00atm> (1)
44.7827613932807

>  <r_j_Total_Internal_Energy_(au)_298.15K_1.00E+00atm> (1)
-903.306266415279

>  <r_j_Total_Enthalpy_(au)_298.15K_1.00E+00atm> (1)
-903.305322229387

>  <r_j_Total_Free_Energy_(au)_298.15K_1.00E+00atm> (1)
-903.365674198646

>  <r_lp_tautomer_probability> (1)
1

>  <r_epik_Ionization_Penalty> (1)
  0.0000

>  <r_epik_Ionization_Penalty_Charging> (1)
  0.0000

>  <r_epik_Ionization_Penalty_Neutral> (1)
  0.0000

>  <r_epik_State_Penalty> (1)
  0.0000

>  <r_epik_Charging_Adjusted_Penalty> (1)
0

>  <i_epik_Tot_Q> (1)
0

>  <i_epik_Tot_abs_Q> (1)
0

>  <s_lp_Force_Field> (1)
S-OPLS

>  <r_lp_Energy> (1)
4.064907

>  <b_lp_Chiralities_Consistent> (1)
1

$$$$
