162406_D-Erythrulose
                    3D
 Schrodinger Suite 2021-3.
 16 15  0  0  1  0            999 V2000
   -0.4483   -0.7669    0.8328 C   0  0  0  0  0  0
    0.0520    0.3874   -0.0510 C   0  0  0  0  0  0
    1.5744    0.3430   -0.1757 C   0  0  0  0  0  0
    2.2487    1.2359    0.3092 O   0  0  0  0  0  0
    2.2501   -0.8310   -0.8790 C   0  0  0  0  0  0
    1.3834   -1.6731   -1.6154 O   0  0  0  0  0  0
   -0.3554    1.6352    0.4440 O   0  0  0  0  0  0
   -1.8586   -0.8115    0.6915 O   0  0  0  0  0  0
    0.0178   -1.7094    0.5105 H   0  0  0  0  0  0
   -0.1400   -0.5480    1.8670 H   0  0  0  0  0  0
   -0.3842    0.2238   -1.0489 H   0  0  0  0  0  0
    3.0791   -0.4258   -1.4769 H   0  0  0  0  0  0
    2.7024   -1.4531   -0.0969 H   0  0  0  0  0  0
    1.0951   -1.2014   -2.4074 H   0  0  0  0  0  0
    0.4578    2.0662    0.7616 H   0  0  0  0  0  0
   -2.2097   -1.4024    1.3690 H   0  0  0  0  0  0
  1  2  1  0  0  0
  1  8  1  0  0  0
  1  9  1  0  0  0
  1 10  1  0  0  0
  2  3  1  0  0  0
  2  7  1  0  0  0
  2 11  1  0  0  0
  3  4  2  0  0  0
  3  5  1  0  0  0
  5  6  1  0  0  0
  5 12  1  0  0  0
  5 13  1  0  0  0
  6 14  1  0  0  0
  7 15  1  0  0  0
  8 16  1  0  0  0
M  END
>  <i_m_Spin_multiplicity> (1)
1

>  <s_j_Task> (1)
Single Point

>  <s_j_QM_Method> (1)
DFT(b3lyp-d3)

>  <s_j_QM_Basis> (1)
cc-pvtz(-f)

>  <i_j_Number_of_canonical_orbitals> (1)
256

>  <i_j_Geometry_convergence_category> (1)
0

>  <r_j_Gas_Phase_Energy> (1)
-458.285247857972

>  <r_j_Final_Energy> (1)
-458.285247857972

>  <r_j_HOMO> (1)
-0.273515835218964

>  <r_j_LUMO> (1)
-0.0503740406249253

>  <r_j_Polarizability> (1)
62.3613971603193

>  <r_j_QM_Dipole_(debye)> (1)
2.61171905902324

>  <r_j_QM_Dipole_X_(debye)> (1)
1.17497449072007

>  <r_j_QM_Dipole_Y_(debye)> (1)
-2.26399433712226

>  <r_j_QM_Dipole_Z_(debye)> (1)
-0.561106969214159

>  <r_j_Lowest_Frequency_(cm-1)> (1)
88.0544054903657

>  <r_j_Highest_Frequency_(cm-1)> (1)
3779.14921661832

>  <r_j_2nd_Lowest_Frequency_(cm-1)> (1)
115.891729321007

>  <i_j_Num_Negative_Frequencies> (1)
0

>  <r_j_Zero_Point_Energy_(kcal/mol)> (1)
79.9641516500965

>  <r_j_Entropy_(cal/mol/K)_298.15K_1.00E+00atm> (1)
91.2554706947072

>  <r_j_Enthalpy_(kcal/mol)_298.15K_1.00E+00atm> (1)
6.18444381862316

>  <r_j_Free_Energy_(kcal/mol)_298.15K_1.00E+00atm> (1)
-21.0233747690038

>  <r_j_Internal_Energy_(kcal/mol)_298.15K_1.00E+00atm> (1)
5.59195822979589

>  <r_j_Heat_Capacity_(cal/mol/K)_298.15K_1.00E+00atm> (1)
31.9109146199893

>  <r_j_ln(Q)_298.15K_1.00E+00atm> (1)
35.4833521109197

>  <r_j_Total_Internal_Energy_(au)_298.15K_1.00E+00atm> (1)
-458.148905517385

>  <r_j_Total_Enthalpy_(au)_298.15K_1.00E+00atm> (1)
-458.147961331493

>  <r_j_Total_Free_Energy_(au)_298.15K_1.00E+00atm> (1)
-458.19131975059

>  <r_lp_tautomer_probability> (1)
1

>  <r_epik_Ionization_Penalty> (1)
  0.0000

>  <r_epik_Ionization_Penalty_Charging> (1)
  0.0000

>  <r_epik_Ionization_Penalty_Neutral> (1)
  0.0000

>  <r_epik_State_Penalty> (1)
  0.0000

>  <r_epik_Charging_Adjusted_Penalty> (1)
0

>  <i_epik_Tot_Q> (1)
0

>  <i_epik_Tot_abs_Q> (1)
0

>  <s_lp_Force_Field> (1)
S-OPLS

>  <r_lp_Energy> (1)
9.72109

>  <b_lp_Chiralities_Consistent> (1)
1

$$$$
