16265_2-ethenyl-1,4-dimethyl benzene
                    3D
 Schrodinger Suite 2021-3.
 22 22  0  0  1  0            999 V2000
   -0.0509   -0.0482    0.0000 C   0  0  0  0  0  0
    1.4596   -0.0201    0.0000 C   0  0  0  0  0  0
    2.1647    1.1805    0.0000 C   0  0  0  0  0  0
    3.5706    1.2362    0.0000 C   0  0  0  0  0  0
    4.2973    0.0221    0.0000 C   0  0  0  0  0  0
    3.5843   -1.1828    0.0000 C   0  0  0  0  0  0
    2.1945   -1.2128    0.0000 C   0  0  0  0  0  0
    5.8106   -0.0142    0.0000 C   0  0  0  0  0  0
    4.2819    2.5286    0.0000 C   0  0  0  0  0  0
    3.7474    3.7573    0.0000 C   0  0  0  0  0  0
   -0.4729    0.9608    0.0000 H   0  0  0  0  0  0
   -0.4375   -0.5729    0.8813 H   0  0  0  0  0  0
   -0.4375   -0.5730   -0.8813 H   0  0  0  0  0  0
    1.5994    2.1080    0.0000 H   0  0  0  0  0  0
    4.1364   -2.1195    0.0000 H   0  0  0  0  0  0
    1.6744   -2.1678    0.0000 H   0  0  0  0  0  0
    6.1720   -1.0461    0.0000 H   0  0  0  0  0  0
    6.2321    0.4816    0.8820 H   0  0  0  0  0  0
    6.2320    0.4816   -0.8820 H   0  0  0  0  0  0
    5.3667    2.4662    0.0000 H   0  0  0  0  0  0
    2.6773    3.9400    0.0000 H   0  0  0  0  0  0
    4.3824    4.6371    0.0000 H   0  0  0  0  0  0
  1  2  1  0  0  0
  1 11  1  0  0  0
  1 12  1  0  0  0
  1 13  1  0  0  0
  2  7  1  0  0  0
  2  3  2  0  0  0
  3  4  1  0  0  0
  3 14  1  0  0  0
  4  5  2  0  0  0
  4  9  1  0  0  0
  5  6  1  0  0  0
  5  8  1  0  0  0
  6  7  2  0  0  0
  6 15  1  0  0  0
  7 16  1  0  0  0
  8 17  1  0  0  0
  8 18  1  0  0  0
  8 19  1  0  0  0
  9 10  2  0  0  0
  9 20  1  0  0  0
 10 21  1  0  0  0
 10 22  1  0  0  0
M  END
>  <i_m_Spin_multiplicity> (1)
1

>  <s_j_Task> (1)
Single Point

>  <s_j_QM_Method> (1)
DFT(b3lyp-d3)

>  <s_j_QM_Basis> (1)
cc-pvtz(-f)

>  <i_j_Number_of_canonical_orbitals> (1)
331

>  <i_j_Geometry_convergence_category> (1)
0

>  <r_j_Gas_Phase_Energy> (1)
-388.420645872177

>  <r_j_Final_Energy> (1)
-388.420645872177

>  <r_j_HOMO> (1)
-0.218029765744423

>  <r_j_LUMO> (1)
-0.0386101311674338

>  <r_j_Polarizability> (1)
119.833035744045

>  <r_j_QM_Dipole_(debye)> (1)
0.28226046823084

>  <r_j_QM_Dipole_X_(debye)> (1)
-0.0355161961804703

>  <r_j_QM_Dipole_Y_(debye)> (1)
-0.280017090247248

>  <r_j_QM_Dipole_Z_(debye)> (1)
3.00703833045187e-05

>  <r_j_Lowest_Frequency_(cm-1)> (1)
87.0489701403315

>  <r_j_Highest_Frequency_(cm-1)> (1)
3183.75370357516

>  <r_j_2nd_Lowest_Frequency_(cm-1)> (1)
139.207940003076

>  <i_j_Num_Negative_Frequencies> (1)
0

>  <r_j_Zero_Point_Energy_(kcal/mol)> (1)
117.968996380265

>  <r_j_Entropy_(cal/mol/K)_298.15K_1.00E+00atm> (1)
93.7658064711128

>  <r_j_Enthalpy_(kcal/mol)_298.15K_1.00E+00atm> (1)
6.57185710819218

>  <r_j_Free_Energy_(kcal/mol)_298.15K_1.00E+00atm> (1)
-21.3844180911701

>  <r_j_Internal_Energy_(kcal/mol)_298.15K_1.00E+00atm> (1)
5.9793715193649

>  <r_j_Heat_Capacity_(cal/mol/K)_298.15K_1.00E+00atm> (1)
37.3968649095996

>  <r_j_ln(Q)_298.15K_1.00E+00atm> (1)
36.0927227504334

>  <r_j_Total_Internal_Energy_(au)_298.15K_1.00E+00atm> (1)
-388.22312157362

>  <r_j_Total_Enthalpy_(au)_298.15K_1.00E+00atm> (1)
-388.222177387728

>  <r_j_Total_Free_Energy_(au)_298.15K_1.00E+00atm> (1)
-388.266728548365

>  <r_lp_tautomer_probability> (1)
1

>  <r_epik_Ionization_Penalty> (1)
  0.0000

>  <r_epik_Ionization_Penalty_Charging> (1)
  0.0000

>  <r_epik_Ionization_Penalty_Neutral> (1)
  0.0000

>  <r_epik_State_Penalty> (1)
  0.0000

>  <r_epik_Charging_Adjusted_Penalty> (1)
0

>  <i_epik_Tot_Q> (1)
0

>  <i_epik_Tot_abs_Q> (1)
0

>  <s_lp_Force_Field> (1)
S-OPLS

>  <r_lp_Energy> (1)
9.631118

>  <b_lp_Chiralities_Consistent> (1)
1

$$$$
