16294_Isoamylbenzene
                    3D
 Schrodinger Suite 2021-3.
 27 27  0  0  1  0            999 V2000
   -0.7124   -0.6731   -1.2447 C   0  0  0  0  0  0
   -0.0525    0.0146   -0.0403 C   0  0  0  0  0  0
   -0.5016    1.4801    0.0531 C   0  0  0  0  0  0
    1.4838   -0.0682   -0.0884 C   0  0  0  0  0  0
    2.0594   -1.4973   -0.0351 C   0  0  0  0  0  0
    3.5710   -1.4916   -0.0014 C   0  0  0  0  0  0
    4.3124   -1.4656   -1.1895 C   0  0  0  0  0  0
    5.7052   -1.3982   -1.1646 C   0  0  0  0  0  0
    6.3824   -1.3551    0.0549 C   0  0  0  0  0  0
    5.6559   -1.3800    1.2460 C   0  0  0  0  0  0
    4.2629   -1.4468    1.2151 C   0  0  0  0  0  0
   -0.3688   -0.2193   -2.1828 H   0  0  0  0  0  0
   -1.8022   -0.5704   -1.2057 H   0  0  0  0  0  0
   -0.4840   -1.7424   -1.2872 H   0  0  0  0  0  0
   -0.3862   -0.5023    0.8725 H   0  0  0  0  0  0
   -0.1900    2.0377   -0.8389 H   0  0  0  0  0  0
   -0.0648    1.9781    0.9256 H   0  0  0  0  0  0
   -1.5915    1.5587    0.1300 H   0  0  0  0  0  0
    1.8462    0.4285   -0.9999 H   0  0  0  0  0  0
    1.9013    0.5018    0.7522 H   0  0  0  0  0  0
    1.6672   -2.0084    0.8536 H   0  0  0  0  0  0
    1.7159   -2.0697   -0.9039 H   0  0  0  0  0  0
    3.7900   -1.5003   -2.1429 H   0  0  0  0  0  0
    6.2626   -1.3825   -2.0973 H   0  0  0  0  0  0
    7.4674   -1.3051    0.0768 H   0  0  0  0  0  0
    6.1744   -1.3505    2.2005 H   0  0  0  0  0  0
    3.7022   -1.4665    2.1470 H   0  0  0  0  0  0
  1  2  1  0  0  0
  1 12  1  0  0  0
  1 13  1  0  0  0
  1 14  1  0  0  0
  2  3  1  0  0  0
  2  4  1  0  0  0
  2 15  1  0  0  0
  3 16  1  0  0  0
  3 17  1  0  0  0
  3 18  1  0  0  0
  4  5  1  0  0  0
  4 19  1  0  0  0
  4 20  1  0  0  0
  5  6  1  0  0  0
  5 21  1  0  0  0
  5 22  1  0  0  0
  6 11  1  0  0  0
  6  7  2  0  0  0
  7  8  1  0  0  0
  7 23  1  0  0  0
  8  9  2  0  0  0
  8 24  1  0  0  0
  9 10  1  0  0  0
  9 25  1  0  0  0
 10 11  2  0  0  0
 10 26  1  0  0  0
 11 27  1  0  0  0
M  END
>  <i_m_Spin_multiplicity> (1)
1

>  <s_j_Task> (1)
Single Point

>  <s_j_QM_Method> (1)
DFT(b3lyp-d3)

>  <s_j_QM_Basis> (1)
cc-pvtz(-f)

>  <i_j_Number_of_canonical_orbitals> (1)
389

>  <i_j_Geometry_convergence_category> (1)
3

>  <r_j_Gas_Phase_Energy> (1)
-428.981285627774

>  <r_j_Final_Energy> (1)
-428.981285627774

>  <r_j_HOMO> (1)
-0.250490699214532

>  <r_j_LUMO> (1)
-0.0181828355842686

>  <r_j_Polarizability> (1)
126.811069365025

>  <r_j_QM_Dipole_(debye)> (1)
0.443233465241768

>  <r_j_QM_Dipole_X_(debye)> (1)
-0.43254395643957

>  <r_j_QM_Dipole_Y_(debye)> (1)
0.075632190036237

>  <r_j_QM_Dipole_Z_(debye)> (1)
0.0603440327468413

>  <r_j_Lowest_Frequency_(cm-1)> (1)
74.5688799162255

>  <r_j_Highest_Frequency_(cm-1)> (1)
3143.80998652194

>  <r_j_2nd_Lowest_Frequency_(cm-1)> (1)
78.9501465237924

>  <i_j_Num_Negative_Frequencies> (1)
0

>  <r_j_Zero_Point_Energy_(kcal/mol)> (1)
151.376841388092

>  <r_j_Entropy_(cal/mol/K)_298.15K_1.00E+00atm> (1)
99.9205093055952

>  <r_j_Enthalpy_(kcal/mol)_298.15K_1.00E+00atm> (1)
7.25069375869217

>  <r_j_Free_Energy_(kcal/mol)_298.15K_1.00E+00atm> (1)
-22.540606090771

>  <r_j_Internal_Energy_(kcal/mol)_298.15K_1.00E+00atm> (1)
6.65820816986489

>  <r_j_Heat_Capacity_(cal/mol/K)_298.15K_1.00E+00atm> (1)
42.1988841931987

>  <r_j_ln(Q)_298.15K_1.00E+00atm> (1)
38.0441423653635

>  <r_j_Total_Internal_Energy_(au)_298.15K_1.00E+00atm> (1)
-428.72944074397

>  <r_j_Total_Enthalpy_(au)_298.15K_1.00E+00atm> (1)
-428.728496558077

>  <r_j_Total_Free_Energy_(au)_298.15K_1.00E+00atm> (1)
-428.775972016654

>  <r_lp_tautomer_probability> (1)
1

>  <r_epik_Ionization_Penalty> (1)
  0.0000

>  <r_epik_Ionization_Penalty_Charging> (1)
  0.0000

>  <r_epik_Ionization_Penalty_Neutral> (1)
  0.0000

>  <r_epik_State_Penalty> (1)
  0.0000

>  <r_epik_Charging_Adjusted_Penalty> (1)
0

>  <i_epik_Tot_Q> (1)
0

>  <i_epik_Tot_abs_Q> (1)
0

>  <s_lp_Force_Field> (1)
S-OPLS

>  <r_lp_Energy> (1)
10.7101

>  <b_lp_Chiralities_Consistent> (1)
1

$$$$
