16302_3,5-Diethyltoluene
                    3D
 Schrodinger Suite 2021-3.
 27 27  0  0  1  0            999 V2000
   -0.5650    1.4547   -0.0513 C   0  0  0  0  0  0
   -0.0274    0.0139    0.0085 C   0  0  0  0  0  0
    1.4858   -0.0314    0.0034 C   0  0  0  0  0  0
    2.2084   -0.0417    1.1987 C   0  0  0  0  0  0
    3.6090   -0.0360    1.2044 C   0  0  0  0  0  0
    4.2825   -0.0144   -0.0193 C   0  0  0  0  0  0
    3.5883   -0.0016   -1.2358 C   0  0  0  0  0  0
    2.1919   -0.0106   -1.2062 C   0  0  0  0  0  0
    4.3449    0.0115   -2.5442 C   0  0  0  0  0  0
    4.3737    0.0027    2.5107 C   0  0  0  0  0  0
    4.6183    1.4416    2.9985 C   0  0  0  0  0  0
   -1.6602    1.4702   -0.0510 H   0  0  0  0  0  0
   -0.2159    1.9607   -0.9573 H   0  0  0  0  0  0
   -0.2136    2.0354    0.8079 H   0  0  0  0  0  0
   -0.4094   -0.4797    0.9100 H   0  0  0  0  0  0
   -0.4164   -0.5525   -0.8464 H   0  0  0  0  0  0
    1.6725   -0.0614    2.1461 H   0  0  0  0  0  0
    5.3712   -0.0140   -0.0274 H   0  0  0  0  0  0
    1.6382   -0.0073   -2.1433 H   0  0  0  0  0  0
    3.6669    0.0217   -3.4023 H   0  0  0  0  0  0
    4.9906   -0.8693   -2.6381 H   0  0  0  0  0  0
    4.9926    0.8928   -2.6189 H   0  0  0  0  0  0
    3.8198   -0.5506    3.2786 H   0  0  0  0  0  0
    5.3366   -0.5082    2.3911 H   0  0  0  0  0  0
    5.1690    1.4515    3.9452 H   0  0  0  0  0  0
    3.6692    1.9664    3.1490 H   0  0  0  0  0  0
    5.1957    2.0078    2.2604 H   0  0  0  0  0  0
  1  2  1  0  0  0
  1 12  1  0  0  0
  1 13  1  0  0  0
  1 14  1  0  0  0
  2  3  1  0  0  0
  2 15  1  0  0  0
  2 16  1  0  0  0
  3  8  1  0  0  0
  3  4  2  0  0  0
  4  5  1  0  0  0
  4 17  1  0  0  0
  5  6  2  0  0  0
  5 10  1  0  0  0
  6  7  1  0  0  0
  6 18  1  0  0  0
  7  8  2  0  0  0
  7  9  1  0  0  0
  8 19  1  0  0  0
  9 20  1  0  0  0
  9 21  1  0  0  0
  9 22  1  0  0  0
 10 11  1  0  0  0
 10 23  1  0  0  0
 10 24  1  0  0  0
 11 25  1  0  0  0
 11 26  1  0  0  0
 11 27  1  0  0  0
M  END
>  <i_m_Spin_multiplicity> (1)
1

>  <s_j_Task> (1)
Single Point

>  <s_j_QM_Method> (1)
DFT(b3lyp-d3)

>  <s_j_QM_Basis> (1)
cc-pvtz(-f)

>  <i_j_Number_of_canonical_orbitals> (1)
389

>  <i_j_Geometry_convergence_category> (1)
0

>  <r_j_Gas_Phase_Energy> (1)
-428.987103274076

>  <r_j_Final_Energy> (1)
-428.987103274076

>  <r_j_HOMO> (1)
-0.235392308972033

>  <r_j_LUMO> (1)
-0.00783997356330168

>  <r_j_Polarizability> (1)
129.957853350935

>  <r_j_QM_Dipole_(debye)> (1)
0.0924814327970311

>  <r_j_QM_Dipole_X_(debye)> (1)
0.0502197205948216

>  <r_j_QM_Dipole_Y_(debye)> (1)
0.0748317109040895

>  <r_j_QM_Dipole_Z_(debye)> (1)
-0.0207607831917924

>  <r_j_Lowest_Frequency_(cm-1)> (1)
70.8520035958428

>  <r_j_Highest_Frequency_(cm-1)> (1)
3104.78103511726

>  <r_j_2nd_Lowest_Frequency_(cm-1)> (1)
90.0675916752303

>  <i_j_Num_Negative_Frequencies> (1)
0

>  <r_j_Zero_Point_Energy_(kcal/mol)> (1)
150.457213851215

>  <r_j_Entropy_(cal/mol/K)_298.15K_1.00E+00atm> (1)
102.4500338645

>  <r_j_Enthalpy_(kcal/mol)_298.15K_1.00E+00atm> (1)
7.6848721247918

>  <r_j_Free_Energy_(kcal/mol)_298.15K_1.00E+00atm> (1)
-22.8606054719088

>  <r_j_Internal_Energy_(kcal/mol)_298.15K_1.00E+00atm> (1)
7.09238653596452

>  <r_j_Heat_Capacity_(cal/mol/K)_298.15K_1.00E+00atm> (1)
43.9341446141111

>  <r_j_ln(Q)_298.15K_1.00E+00atm> (1)
38.584238845636

>  <r_j_Total_Internal_Energy_(au)_298.15K_1.00E+00atm> (1)
-428.736032002774

>  <r_j_Total_Enthalpy_(au)_298.15K_1.00E+00atm> (1)
-428.735087816881

>  <r_j_Total_Free_Energy_(au)_298.15K_1.00E+00atm> (1)
-428.783765134208

>  <r_lp_tautomer_probability> (1)
1

>  <r_epik_Ionization_Penalty> (1)
  0.0000

>  <r_epik_Ionization_Penalty_Charging> (1)
  0.0000

>  <r_epik_Ionization_Penalty_Neutral> (1)
  0.0000

>  <r_epik_State_Penalty> (1)
  0.0000

>  <r_epik_Charging_Adjusted_Penalty> (1)
0

>  <i_epik_Tot_Q> (1)
0

>  <i_epik_Tot_abs_Q> (1)
0

>  <s_lp_Force_Field> (1)
S-OPLS

>  <r_lp_Energy> (1)
7.600655

>  <b_lp_Chiralities_Consistent> (1)
1

$$$$
