16319_2,6-dimethyloctane
                    3D
 Schrodinger Suite 2021-3.
 32 31  0  0  1  0            999 V2000
   -0.6661    3.7651    1.2705 C   0  0  0  0  0  0
   -0.1623    2.3173    1.2868 C   0  0  0  0  0  0
   -0.6125    1.4653    0.0833 C   0  0  0  0  0  0
   -2.1429    1.3572    0.0019 C   0  0  0  0  0  0
    0.0120    0.0558    0.1119 C   0  0  0  0  0  0
    1.5418    0.0103    0.0021 C   0  0  0  0  0  0
    2.0816   -1.4213   -0.1084 C   0  0  0  0  0  0
    3.6168   -1.5434   -0.0841 C   0  0  0  0  0  0
    4.2787   -0.8204   -1.2664 C   0  0  0  0  0  0
    4.0368   -3.0198   -0.0558 C   0  0  0  0  0  0
   -0.2330    4.3397    2.0957 H   0  0  0  0  0  0
   -1.7544    3.8236    1.3673 H   0  0  0  0  0  0
   -0.3886    4.2663    0.3355 H   0  0  0  0  0  0
    0.9329    2.3336    1.3250 H   0  0  0  0  0  0
   -0.4921    1.8219    2.2118 H   0  0  0  0  0  0
   -0.2588    1.9680   -0.8312 H   0  0  0  0  0  0
   -2.5469    0.8990    0.9135 H   0  0  0  0  0  0
   -2.4483    0.7342   -0.8457 H   0  0  0  0  0  0
   -2.6196    2.3341   -0.1195 H   0  0  0  0  0  0
   -0.3037   -0.4561    1.0334 H   0  0  0  0  0  0
   -0.4129   -0.5291   -0.7160 H   0  0  0  0  0  0
    1.8518    0.5983   -0.8715 H   0  0  0  0  0  0
    1.9999    0.4931    0.8749 H   0  0  0  0  0  0
    1.6704   -2.0164    0.7193 H   0  0  0  0  0  0
    1.7017   -1.8850   -1.0312 H   0  0  0  0  0  0
    3.9732   -1.0716    0.8445 H   0  0  0  0  0  0
    3.9182   -1.2294   -2.2188 H   0  0  0  0  0  0
    5.3669   -0.9442   -1.2426 H   0  0  0  0  0  0
    4.0682    0.2532   -1.2630 H   0  0  0  0  0  0
    3.7022   -3.5356   -0.9646 H   0  0  0  0  0  0
    3.6018   -3.5435    0.8026 H   0  0  0  0  0  0
    5.1258   -3.1237    0.0025 H   0  0  0  0  0  0
  1  2  1  0  0  0
  1 11  1  0  0  0
  1 12  1  0  0  0
  1 13  1  0  0  0
  2  3  1  0  0  0
  2 14  1  0  0  0
  2 15  1  0  0  0
  3  4  1  0  0  0
  3  5  1  0  0  0
  3 16  1  0  0  0
  4 17  1  0  0  0
  4 18  1  0  0  0
  4 19  1  0  0  0
  5  6  1  0  0  0
  5 20  1  0  0  0
  5 21  1  0  0  0
  6  7  1  0  0  0
  6 22  1  0  0  0
  6 23  1  0  0  0
  7  8  1  0  0  0
  7 24  1  0  0  0
  7 25  1  0  0  0
  8  9  1  0  0  0
  8 10  1  0  0  0
  8 26  1  0  0  0
  9 27  1  0  0  0
  9 28  1  0  0  0
  9 29  1  0  0  0
 10 30  1  0  0  0
 10 31  1  0  0  0
 10 32  1  0  0  0
M  END
>  <i_m_Spin_multiplicity> (1)
1

>  <s_j_Task> (1)
Single Point

>  <s_j_QM_Method> (1)
DFT(b3lyp-d3)

>  <s_j_QM_Basis> (1)
cc-pvtz(-f)

>  <i_j_Number_of_canonical_orbitals> (1)
425

>  <i_j_Geometry_convergence_category> (1)
0

>  <r_j_Gas_Phase_Energy> (1)
-394.500031540088

>  <r_j_Final_Energy> (1)
-394.500031540088

>  <r_j_HOMO> (1)
-0.298942574255858

>  <r_j_LUMO> (1)
0.0257875192556701

>  <r_j_Polarizability> (1)
123.970394987041

>  <r_j_QM_Dipole_(debye)> (1)
0.134112057065624

>  <r_j_QM_Dipole_X_(debye)> (1)
0.094954661368543

>  <r_j_QM_Dipole_Y_(debye)> (1)
0.0718283993637165

>  <r_j_QM_Dipole_Z_(debye)> (1)
0.0617279286839035

>  <r_j_Lowest_Frequency_(cm-1)> (1)
70.959709537251

>  <r_j_Highest_Frequency_(cm-1)> (1)
3060.42193107002

>  <r_j_2nd_Lowest_Frequency_(cm-1)> (1)
82.9061565734895

>  <i_j_Num_Negative_Frequencies> (1)
0

>  <r_j_Zero_Point_Energy_(kcal/mol)> (1)
189.477914801236

>  <r_j_Entropy_(cal/mol/K)_298.15K_1.00E+00atm> (1)
107.920572959998

>  <r_j_Enthalpy_(kcal/mol)_298.15K_1.00E+00atm> (1)
8.52824895082085

>  <r_j_Free_Energy_(kcal/mol)_298.15K_1.00E+00atm> (1)
-23.6482698772025

>  <r_j_Internal_Energy_(kcal/mol)_298.15K_1.00E+00atm> (1)
7.93576336199358

>  <r_j_Heat_Capacity_(cal/mol/K)_298.15K_1.00E+00atm> (1)
48.6528776579745

>  <r_j_ln(Q)_298.15K_1.00E+00atm> (1)
39.9136625820896

>  <r_j_Total_Internal_Energy_(au)_298.15K_1.00E+00atm> (1)
-394.18543281672

>  <r_j_Total_Enthalpy_(au)_298.15K_1.00E+00atm> (1)
-394.184488630828

>  <r_j_Total_Free_Energy_(au)_298.15K_1.00E+00atm> (1)
-394.235765177822

>  <r_lp_tautomer_probability> (1)
1

>  <r_epik_Ionization_Penalty> (1)
  0.0000

>  <r_epik_Ionization_Penalty_Charging> (1)
  0.0000

>  <r_epik_Ionization_Penalty_Neutral> (1)
  0.0000

>  <r_epik_State_Penalty> (1)
  0.0000

>  <r_epik_Charging_Adjusted_Penalty> (1)
0

>  <i_epik_Tot_Q> (1)
0

>  <i_epik_Tot_abs_Q> (1)
0

>  <s_lp_Force_Field> (1)
S-OPLS

>  <r_lp_Energy> (1)
5.57768

>  <b_lp_Chiralities_Consistent> (1)
1

$$$$
