16318_Decachlorobiphenyl
                    3D
 Schrodinger Suite 2021-3.
 22 23  0  0  1  0            999 V2000
    0.0041    0.0013    0.0001 C   0  0  0  0  0  0
   -0.7047   -1.2063    0.0006 C   0  0  0  0  0  0
   -2.1074   -1.2196    0.0004 C   0  0  0  0  0  0
   -2.8083    0.0000    0.0000 C   0  0  0  0  0  0
   -2.1082    1.2202   -0.0004 C   0  0  0  0  0  0
   -0.7053    1.2087   -0.0005 C   0  0  0  0  0  0
    0.1916    2.7025   -0.0014 Cl  0  0  0  0  0  0
   -2.9719    2.7271   -0.0010 Cl  0  0  0  0  0  0
   -4.5457   -0.0010   -0.0001 Cl  0  0  0  0  0  0
   -2.9693   -2.7276    0.0008 Cl  0  0  0  0  0  0
    0.1933   -2.6996    0.0015 Cl  0  0  0  0  0  0
    1.4958    0.0010    0.0001 C   0  0  0  0  0  0
    2.2050    0.0008   -1.2072 C   0  0  0  0  0  0
    3.6078    0.0003   -1.2198 C   0  0  0  0  0  0
    4.3084   -0.0004    0.0000 C   0  0  0  0  0  0
    3.6078   -0.0008    1.2198 C   0  0  0  0  0  0
    2.2051   -0.0001    1.2074 C   0  0  0  0  0  0
    1.3078   -0.0013    2.7011 Cl  0  0  0  0  0  0
    4.4704   -0.0022    2.7273 Cl  0  0  0  0  0  0
    6.0457   -0.0008   -0.0001 Cl  0  0  0  0  0  0
    4.4703    0.0003   -2.7274 Cl  0  0  0  0  0  0
    1.3077    0.0008   -2.7009 Cl  0  0  0  0  0  0
  1  6  1  0  0  0
  1  2  2  0  0  0
  1 12  1  0  0  0
  2  3  1  0  0  0
  2 11  1  0  0  0
  3  4  2  0  0  0
  3 10  1  0  0  0
  4  5  1  0  0  0
  4  9  1  0  0  0
  5  6  2  0  0  0
  5  8  1  0  0  0
  6  7  1  0  0  0
 12 17  1  0  0  0
 12 13  2  0  0  0
 13 14  1  0  0  0
 13 22  1  0  0  0
 14 15  2  0  0  0
 14 21  1  0  0  0
 15 16  1  0  0  0
 15 20  1  0  0  0
 16 17  2  0  0  0
 16 19  1  0  0  0
 17 18  1  0  0  0
M  END
>  <i_m_Spin_multiplicity> (1)
1

>  <s_j_Task> (1)
Single Point

>  <s_j_QM_Method> (1)
DFT(b3lyp-d3)

>  <s_j_QM_Basis> (1)
cc-pvtz(-f)

>  <i_j_Number_of_canonical_orbitals> (1)
533

>  <i_j_Geometry_convergence_category> (1)
0

>  <r_j_Gas_Phase_Energy> (1)
-5059.71706059062

>  <r_j_Final_Energy> (1)
-5059.71706059062

>  <r_j_HOMO> (1)
-0.268566747619818

>  <r_j_LUMO> (1)
-0.0697748828815781

>  <r_j_Polarizability> (1)
266.195037211599

>  <r_j_QM_Dipole_(debye)> (1)
0.00122252831502993

>  <r_j_QM_Dipole_X_(debye)> (1)
0.00034858554839074

>  <r_j_QM_Dipole_Y_(debye)> (1)
0.0011712993544053

>  <r_j_QM_Dipole_Z_(debye)> (1)
3.34875928182748e-05

>  <r_j_Lowest_Frequency_(cm-1)> (1)
37.304539319017

>  <r_j_Highest_Frequency_(cm-1)> (1)
1541.71355421065

>  <r_j_2nd_Lowest_Frequency_(cm-1)> (1)
43.0435570154888

>  <i_j_Num_Negative_Frequencies> (1)
0

>  <r_j_Zero_Point_Energy_(kcal/mol)> (1)
52.6711267597824

>  <r_j_Entropy_(cal/mol/K)_298.15K_1.00E+00atm> (1)
151.111028165207

>  <r_j_Enthalpy_(kcal/mol)_298.15K_1.00E+00atm> (1)
13.7034917519455

>  <r_j_Free_Energy_(kcal/mol)_298.15K_1.00E+00atm> (1)
-31.3502612955111

>  <r_j_Internal_Energy_(kcal/mol)_298.15K_1.00E+00atm> (1)
13.1110061631182

>  <r_j_Heat_Capacity_(cal/mol/K)_298.15K_1.00E+00atm> (1)
74.1564865061055

>  <r_j_ln(Q)_298.15K_1.00E+00atm> (1)
52.9131203976855

>  <r_j_Total_Internal_Energy_(au)_298.15K_1.00E+00atm> (1)
-5059.61223008834

>  <r_j_Total_Enthalpy_(au)_298.15K_1.00E+00atm> (1)
-5059.61128590245

>  <r_j_Total_Free_Energy_(au)_298.15K_1.00E+00atm> (1)
-5059.68308362854

>  <r_lp_tautomer_probability> (1)
1

>  <r_epik_Ionization_Penalty> (1)
  0.0000

>  <r_epik_Ionization_Penalty_Charging> (1)
  0.0000

>  <r_epik_Ionization_Penalty_Neutral> (1)
  0.0000

>  <r_epik_State_Penalty> (1)
  0.0000

>  <r_epik_Charging_Adjusted_Penalty> (1)
0

>  <i_epik_Tot_Q> (1)
0

>  <i_epik_Tot_abs_Q> (1)
0

>  <s_lp_Force_Field> (1)
S-OPLS

>  <r_lp_Energy> (1)
32.313954

>  <b_lp_Chiralities_Consistent> (1)
1

$$$$
