16402_Hexamethylenediamine
                    3D
 Schrodinger Suite 2021-3.
 26 25  0  0  1  0            999 V2000
   -0.0187    0.0208    0.0018 C   0  0  0  0  0  0
    1.5186   -0.0209    0.0017 C   0  0  0  0  0  0
    2.0613   -1.4638    0.0013 C   0  0  0  0  0  0
    3.5883   -1.4698   -0.0016 C   0  0  0  0  0  0
    4.1367   -2.8969   -0.0013 N   0  3  1  0  0  0
   -0.5613    1.4637    0.0014 C   0  0  0  0  0  0
   -2.0883    1.4699   -0.0015 C   0  0  0  0  0  0
   -2.6365    2.8971   -0.0013 N   0  3  1  0  0  0
   -0.3995   -0.5115   -0.8788 H   0  0  0  0  0  0
   -0.3998   -0.5114    0.8822 H   0  0  0  0  0  0
    1.8993    0.5114   -0.8787 H   0  0  0  0  0  0
    1.8997    0.5112    0.8822 H   0  0  0  0  0  0
    1.6899   -1.9965    0.8862 H   0  0  0  0  0  0
    1.6867   -1.9973   -0.8816 H   0  0  0  0  0  0
    4.0022   -0.9884   -0.8908 H   0  0  0  0  0  0
    4.0055   -0.9866    0.8851 H   0  0  0  0  0  0
    5.1636   -2.9085   -0.0033 H   0  0  0  0  0  0
    3.8235   -3.4213   -0.8265 H   0  0  0  0  0  0
   -0.1899    1.9963    0.8862 H   0  0  0  0  0  0
   -0.1867    1.9972   -0.8815 H   0  0  0  0  0  0
   -2.5023    0.9885   -0.8907 H   0  0  0  0  0  0
   -2.5056    0.9868    0.8852 H   0  0  0  0  0  0
   -3.6634    2.9087   -0.0034 H   0  0  0  0  0  0
   -2.3233    3.4213   -0.8265 H   0  0  0  0  0  0
    3.8268   -3.4196    0.8263 H   0  0  0  0  0  0
   -2.3267    3.4197    0.8262 H   0  0  0  0  0  0
  1  2  1  0  0  0
  1  6  1  0  0  0
  1  9  1  0  0  0
  1 10  1  0  0  0
  2  3  1  0  0  0
  2 11  1  0  0  0
  2 12  1  0  0  0
  3  4  1  0  0  0
  3 13  1  0  0  0
  3 14  1  0  0  0
  4  5  1  0  0  0
  4 15  1  0  0  0
  4 16  1  0  0  0
  5 17  1  0  0  0
  5 18  1  0  0  0
  5 25  1  0  0  0
  6  7  1  0  0  0
  6 19  1  0  0  0
  6 20  1  0  0  0
  7  8  1  0  0  0
  7 21  1  0  0  0
  7 22  1  0  0  0
  8 23  1  0  0  0
  8 24  1  0  0  0
  8 26  1  0  0  0
M  END
>  <i_m_Spin_multiplicity> (1)
1

>  <s_j_Task> (1)
Single Point

>  <s_j_QM_Method> (1)
DFT(b3lyp-d3)

>  <s_j_QM_Basis> (1)
cc-pvtz(-f)

>  <i_j_Number_of_canonical_orbitals> (1)
344

>  <i_j_Geometry_convergence_category> (1)
0

>  <r_j_Gas_Phase_Energy> (1)
-348.578901239374

>  <r_j_Final_Energy> (1)
-348.578901239374

>  <r_j_HOMO> (1)
-0.583299496722799

>  <r_j_LUMO> (1)
-0.276690541363241

>  <r_j_Polarizability> (1)
85.0800898551339

>  <r_j_QM_Dipole_(debye)> (1)
0.00904912464783112

>  <r_j_QM_Dipole_X_(debye)> (1)
0.000544781379585463

>  <r_j_QM_Dipole_Y_(debye)> (1)
0.000117855976228574

>  <r_j_QM_Dipole_Z_(debye)> (1)
-0.00903194221135791

>  <r_j_Lowest_Frequency_(cm-1)> (1)
74.0854375957127

>  <r_j_Highest_Frequency_(cm-1)> (1)
3427.00124569239

>  <r_j_2nd_Lowest_Frequency_(cm-1)> (1)
96.2720800685015

>  <i_j_Num_Negative_Frequencies> (1)
0

>  <r_j_Zero_Point_Energy_(kcal/mol)> (1)
159.786830452363

>  <r_j_Entropy_(cal/mol/K)_298.15K_1.00E+00atm> (1)
96.8064590028156

>  <r_j_Enthalpy_(kcal/mol)_298.15K_1.00E+00atm> (1)
7.13764448175492

>  <r_j_Free_Energy_(kcal/mol)_298.15K_1.00E+00atm> (1)
-21.7252012699346

>  <r_j_Internal_Energy_(kcal/mol)_298.15K_1.00E+00atm> (1)
6.54515889292764

>  <r_j_Heat_Capacity_(cal/mol/K)_298.15K_1.00E+00atm> (1)
37.9941444333161

>  <r_j_ln(Q)_298.15K_1.00E+00atm> (1)
36.6678982233744

>  <r_j_Total_Internal_Energy_(au)_298.15K_1.00E+00atm> (1)
-348.313834340312

>  <r_j_Total_Enthalpy_(au)_298.15K_1.00E+00atm> (1)
-348.31289015442

>  <r_j_Total_Free_Energy_(au)_298.15K_1.00E+00atm> (1)
-348.358886027202

>  <r_epik_Ionization_Penalty> (1)
  0.0008

>  <r_epik_Ionization_Penalty_Charging> (1)
  0.0008

>  <r_epik_Ionization_Penalty_Neutral> (1)
  0.0000

>  <r_epik_State_Penalty> (1)
  0.0005

>  <r_epik_Charging_Adjusted_Penalty> (1)
0.00132939773738761

>  <i_epik_Tot_Q> (1)
2

>  <i_epik_Tot_abs_Q> (1)
2

>  <s_lp_Force_Field> (1)
S-OPLS

>  <r_lp_Energy> (1)
13.128488

>  <b_lp_Chiralities_Consistent> (1)
1

$$$$
