16607_Octylbenzene
                    3D
 Schrodinger Suite 2021-3.
 36 36  0  0  1  0            999 V2000
   -2.7261    2.9513    0.0061 C   0  0  0  0  0  0
   -2.1625    1.5275    0.0030 C   0  0  0  0  0  0
   -0.6299    1.4874   -0.0004 C   0  0  0  0  0  0
   -0.0606    0.0648   -0.0026 C   0  0  0  0  0  0
    1.4711    0.0162   -0.0049 C   0  0  0  0  0  0
    2.0293   -1.4110   -0.0049 C   0  0  0  0  0  0
    3.5596   -1.4657   -0.0054 C   0  0  0  0  0  0
    4.1117   -2.9039   -0.0027 C   0  0  0  0  0  0
    5.6227   -2.9386   -0.0002 C   0  0  0  0  0  0
    6.3427   -2.9320   -1.2017 C   0  0  0  0  0  0
    7.7371   -2.9090   -1.2024 C   0  0  0  0  0  0
    8.4377   -2.8932    0.0042 C   0  0  0  0  0  0
    7.7332   -2.9012    1.2087 C   0  0  0  0  0  0
    6.3389   -2.9243    1.2035 C   0  0  0  0  0  0
   -3.8211    2.9516    0.0086 H   0  0  0  0  0  0
   -2.3941    3.5083   -0.8777 H   0  0  0  0  0  0
   -2.3901    3.5060    0.8899 H   0  0  0  0  0  0
   -2.5355    0.9816    0.8805 H   0  0  0  0  0  0
   -2.5394    0.9838   -0.8742 H   0  0  0  0  0  0
   -0.2539    2.0322   -0.8786 H   0  0  0  0  0  0
   -0.2502    2.0309    0.8770 H   0  0  0  0  0  0
   -0.4389   -0.4788    0.8753 H   0  0  0  0  0  0
   -0.4417   -0.4775   -0.8800 H   0  0  0  0  0  0
    1.8522    0.5563   -0.8834 H   0  0  0  0  0  0
    1.8546    0.5569    0.8722 H   0  0  0  0  0  0
    1.6466   -1.9511    0.8731 H   0  0  0  0  0  0
    1.6459   -1.9516   -0.8824 H   0  0  0  0  0  0
    3.9514   -0.9345   -0.8834 H   0  0  0  0  0  0
    3.9517   -0.9315    0.8707 H   0  0  0  0  0  0
    3.7252   -3.4342    0.8770 H   0  0  0  0  0  0
    3.7277   -3.4367   -0.8820 H   0  0  0  0  0  0
    5.8020   -2.9449   -2.1454 H   0  0  0  0  0  0
    8.2770   -2.9067   -2.1454 H   0  0  0  0  0  0
    9.5238   -2.8775    0.0059 H   0  0  0  0  0  0
    8.2701   -2.8928    2.1533 H   0  0  0  0  0  0
    5.7950   -2.9311    2.1456 H   0  0  0  0  0  0
  1  2  1  0  0  0
  1 15  1  0  0  0
  1 16  1  0  0  0
  1 17  1  0  0  0
  2  3  1  0  0  0
  2 18  1  0  0  0
  2 19  1  0  0  0
  3  4  1  0  0  0
  3 20  1  0  0  0
  3 21  1  0  0  0
  4  5  1  0  0  0
  4 22  1  0  0  0
  4 23  1  0  0  0
  5  6  1  0  0  0
  5 24  1  0  0  0
  5 25  1  0  0  0
  6  7  1  0  0  0
  6 26  1  0  0  0
  6 27  1  0  0  0
  7  8  1  0  0  0
  7 28  1  0  0  0
  7 29  1  0  0  0
  8  9  1  0  0  0
  8 30  1  0  0  0
  8 31  1  0  0  0
  9 14  1  0  0  0
  9 10  2  0  0  0
 10 11  1  0  0  0
 10 32  1  0  0  0
 11 12  2  0  0  0
 11 33  1  0  0  0
 12 13  1  0  0  0
 12 34  1  0  0  0
 13 14  2  0  0  0
 13 35  1  0  0  0
 14 36  1  0  0  0
M  END
>  <i_m_Spin_multiplicity> (1)
1

>  <s_j_Task> (1)
Single Point

>  <s_j_QM_Method> (1)
DFT(b3lyp-d3)

>  <s_j_QM_Basis> (1)
cc-pvtz(-f)

>  <i_j_Number_of_canonical_orbitals> (1)
513

>  <i_j_Geometry_convergence_category> (1)
0

>  <r_j_Gas_Phase_Energy> (1)
-546.969094342379

>  <r_j_Final_Energy> (1)
-546.969094342379

>  <r_j_HOMO> (1)
-0.258243185255202

>  <r_j_LUMO> (1)
-0.0259278842122115

>  <r_j_Polarizability> (1)
165.719974984924

>  <r_j_QM_Dipole_(debye)> (1)
0.45834940645414

>  <r_j_QM_Dipole_X_(debye)> (1)
-0.442667248277839

>  <r_j_QM_Dipole_Y_(debye)> (1)
0.118865400512583

>  <r_j_QM_Dipole_Z_(debye)> (1)
-0.000949873660577295

>  <r_j_Lowest_Frequency_(cm-1)> (1)
54.7210474399508

>  <r_j_Highest_Frequency_(cm-1)> (1)
3144.67873313139

>  <r_j_2nd_Lowest_Frequency_(cm-1)> (1)
56.989100901184

>  <i_j_Num_Negative_Frequencies> (1)
0

>  <r_j_Zero_Point_Energy_(kcal/mol)> (1)
205.17009079273

>  <r_j_Entropy_(cal/mol/K)_298.15K_1.00E+00atm> (1)
118.248566737461

>  <r_j_Enthalpy_(kcal/mol)_298.15K_1.00E+00atm> (1)
9.60685412436705

>  <r_j_Free_Energy_(kcal/mol)_298.15K_1.00E+00atm> (1)
-25.648956048407

>  <r_j_Internal_Energy_(kcal/mol)_298.15K_1.00E+00atm> (1)
9.01436853553978

>  <r_j_Heat_Capacity_(cal/mol/K)_298.15K_1.00E+00atm> (1)
55.9731566696708

>  <r_j_ln(Q)_298.15K_1.00E+00atm> (1)
43.2904302350623

>  <r_j_Total_Internal_Energy_(au)_298.15K_1.00E+00atm> (1)
-546.627769677863

>  <r_j_Total_Enthalpy_(au)_298.15K_1.00E+00atm> (1)
-546.626825491971

>  <r_j_Total_Free_Energy_(au)_298.15K_1.00E+00atm> (1)
-546.683009202111

>  <r_lp_tautomer_probability> (1)
1

>  <r_epik_Ionization_Penalty> (1)
  0.0000

>  <r_epik_Ionization_Penalty_Charging> (1)
  0.0000

>  <r_epik_Ionization_Penalty_Neutral> (1)
  0.0000

>  <r_epik_State_Penalty> (1)
  0.0000

>  <r_epik_Charging_Adjusted_Penalty> (1)
0

>  <i_epik_Tot_Q> (1)
0

>  <i_epik_Tot_abs_Q> (1)
0

>  <s_lp_Force_Field> (1)
S-OPLS

>  <r_lp_Energy> (1)
12.00419

>  <b_lp_Chiralities_Consistent> (1)
1

$$$$
