16656_2,4-dimethylheptane
                    3D
 Schrodinger Suite 2021-3.
 29 28  0  0  1  0            999 V2000
   -2.6808   -1.5212   -2.4667 C   0  0  0  0  0  0
   -2.1503   -0.6458   -1.3268 C   0  0  0  0  0  0
   -0.6181   -0.6596   -1.2388 C   0  0  0  0  0  0
   -0.0271    0.0750   -0.0208 C   0  0  0  0  0  0
   -0.4375    1.5561    0.0134 C   0  0  0  0  0  0
    1.5115   -0.0313    0.0277 C   0  0  0  0  0  0
    2.1254   -1.4455    0.0308 C   0  0  0  0  0  0
    1.5797   -2.3159    1.1716 C   0  0  0  0  0  0
    3.6564   -1.3512    0.1093 C   0  0  0  0  0  0
   -3.7742   -1.4937   -2.5207 H   0  0  0  0  0  0
   -2.3788   -2.5668   -2.3354 H   0  0  0  0  0  0
   -2.2906   -1.1856   -3.4345 H   0  0  0  0  0  0
   -2.5109    0.3805   -1.4642 H   0  0  0  0  0  0
   -2.5693   -0.9919   -0.3715 H   0  0  0  0  0  0
   -0.2889   -1.7064   -1.2215 H   0  0  0  0  0  0
   -0.1960   -0.2252   -2.1578 H   0  0  0  0  0  0
   -0.4330   -0.4011    0.8838 H   0  0  0  0  0  0
   -0.1169    2.0686   -0.9023 H   0  0  0  0  0  0
    0.0264    2.0717    0.8614 H   0  0  0  0  0  0
   -1.5202    1.6812    0.1044 H   0  0  0  0  0  0
    1.9241    0.5260   -0.8265 H   0  0  0  0  0  0
    1.8638    0.4944    0.9276 H   0  0  0  0  0  0
    1.8746   -1.9355   -0.9200 H   0  0  0  0  0  0
    1.7603   -1.8387    2.1429 H   0  0  0  0  0  0
    2.0691   -3.2959    1.1865 H   0  0  0  0  0  0
    0.5026   -2.4858    1.0795 H   0  0  0  0  0  0
    3.9697   -0.8856    1.0521 H   0  0  0  0  0  0
    4.0626   -0.7479   -0.7101 H   0  0  0  0  0  0
    4.1191   -2.3429    0.0588 H   0  0  0  0  0  0
  1  2  1  0  0  0
  1 10  1  0  0  0
  1 11  1  0  0  0
  1 12  1  0  0  0
  2  3  1  0  0  0
  2 13  1  0  0  0
  2 14  1  0  0  0
  3  4  1  0  0  0
  3 15  1  0  0  0
  3 16  1  0  0  0
  4  5  1  0  0  0
  4  6  1  0  0  0
  4 17  1  0  0  0
  5 18  1  0  0  0
  5 19  1  0  0  0
  5 20  1  0  0  0
  6  7  1  0  0  0
  6 21  1  0  0  0
  6 22  1  0  0  0
  7  8  1  0  0  0
  7  9  1  0  0  0
  7 23  1  0  0  0
  8 24  1  0  0  0
  8 25  1  0  0  0
  8 26  1  0  0  0
  9 27  1  0  0  0
  9 28  1  0  0  0
  9 29  1  0  0  0
M  END
>  <i_m_Spin_multiplicity> (1)
1

>  <s_j_Task> (1)
Single Point

>  <s_j_QM_Method> (1)
DFT(b3lyp-d3)

>  <s_j_QM_Basis> (1)
cc-pvtz(-f)

>  <i_j_Number_of_canonical_orbitals> (1)
384

>  <i_j_Geometry_convergence_category> (1)
0

>  <r_j_Gas_Phase_Energy> (1)
-355.170874928847

>  <r_j_Final_Energy> (1)
-355.170874928847

>  <r_j_HOMO> (1)
-0.303387721737963

>  <r_j_LUMO> (1)
0.0213617327027391

>  <r_j_Polarizability> (1)
110.976727575709

>  <r_j_QM_Dipole_(debye)> (1)
0.103785626501395

>  <r_j_QM_Dipole_X_(debye)> (1)
-0.0847411778758034

>  <r_j_QM_Dipole_Y_(debye)> (1)
-0.0589054954584277

>  <r_j_QM_Dipole_Z_(debye)> (1)
-0.0109786905096008

>  <r_j_Lowest_Frequency_(cm-1)> (1)
83.1627705942353

>  <r_j_Highest_Frequency_(cm-1)> (1)
3056.99143250819

>  <r_j_2nd_Lowest_Frequency_(cm-1)> (1)
115.519175413494

>  <i_j_Num_Negative_Frequencies> (1)
0

>  <r_j_Zero_Point_Energy_(kcal/mol)> (1)
171.673535757487

>  <r_j_Entropy_(cal/mol/K)_298.15K_1.00E+00atm> (1)
101.437629215627

>  <r_j_Enthalpy_(kcal/mol)_298.15K_1.00E+00atm> (1)
7.73212818796746

>  <r_j_Free_Energy_(kcal/mol)_298.15K_1.00E+00atm> (1)
-22.5115009626716

>  <r_j_Internal_Energy_(kcal/mol)_298.15K_1.00E+00atm> (1)
7.13964259914018

>  <r_j_Heat_Capacity_(cal/mol/K)_298.15K_1.00E+00atm> (1)
43.8686931740278

>  <r_j_ln(Q)_298.15K_1.00E+00atm> (1)
37.9950185914722

>  <r_j_Total_Internal_Energy_(au)_298.15K_1.00E+00atm> (1)
-354.885917988903

>  <r_j_Total_Enthalpy_(au)_298.15K_1.00E+00atm> (1)
-354.884973803011

>  <r_j_Total_Free_Energy_(au)_298.15K_1.00E+00atm> (1)
-354.933170094217

>  <r_lp_tautomer_probability> (1)
1

>  <r_epik_Ionization_Penalty> (1)
  0.0000

>  <r_epik_Ionization_Penalty_Charging> (1)
  0.0000

>  <r_epik_Ionization_Penalty_Neutral> (1)
  0.0000

>  <r_epik_State_Penalty> (1)
  0.0000

>  <r_epik_Charging_Adjusted_Penalty> (1)
0

>  <i_epik_Tot_Q> (1)
0

>  <i_epik_Tot_abs_Q> (1)
0

>  <s_lp_Force_Field> (1)
S-OPLS

>  <r_lp_Energy> (1)
5.037262

>  <b_lp_Chiralities_Consistent> (1)
1

$$$$
