16653_Molinate
                    3D
 Schrodinger Suite 2021-3.
 29 29  0  0  1  0            999 V2000
   -0.6699    1.4498    0.0550 C   0  0  0  0  0  0
   -0.1554    0.0125    0.0144 C   0  0  0  0  0  0
    1.6841    0.0106    0.0034 S   0  0  0  0  0  0
    1.9209   -1.7990    0.0034 C   0  0  0  0  0  0
    0.9620   -2.5555    0.0434 O   0  0  0  0  0  0
    3.2202   -2.2153   -0.0565 N   0  0  0  0  0  0
    3.4737   -3.6584    0.0612 C   0  0  0  0  0  0
    3.6255   -4.1283    1.5118 C   0  0  0  0  0  0
    4.6861   -3.3698    2.3295 C   0  0  0  0  0  0
    4.3317   -1.8918    2.5998 C   0  0  0  0  0  0
    4.7254   -0.8869    1.5025 C   0  0  0  0  0  0
    4.3760   -1.3251    0.0604 C   0  0  0  0  0  0
   -1.7646    1.4468    0.0641 H   0  0  0  0  0  0
   -0.3421    2.0205   -0.8196 H   0  0  0  0  0  0
   -0.3266    1.9748    0.9518 H   0  0  0  0  0  0
   -0.4813   -0.5634    0.8827 H   0  0  0  0  0  0
   -0.4964   -0.5168   -0.8775 H   0  0  0  0  0  0
    2.6454   -4.1825   -0.4184 H   0  0  0  0  0  0
    4.3869   -3.8733   -0.5062 H   0  0  0  0  0  0
    2.6515   -4.0280    2.0062 H   0  0  0  0  0  0
    3.8637   -5.1997    1.4970 H   0  0  0  0  0  0
    4.7991   -3.8841    3.2911 H   0  0  0  0  0  0
    5.6658   -3.4393    1.8343 H   0  0  0  0  0  0
    3.2509   -1.8203    2.7761 H   0  0  0  0  0  0
    4.8096   -1.5663    3.5312 H   0  0  0  0  0  0
    4.2397    0.0692    1.7223 H   0  0  0  0  0  0
    5.8068   -0.7026    1.5372 H   0  0  0  0  0  0
    5.2177   -1.8732   -0.3730 H   0  0  0  0  0  0
    4.2241   -0.4488   -0.5777 H   0  0  0  0  0  0
  1  2  1  0  0  0
  1 13  1  0  0  0
  1 14  1  0  0  0
  1 15  1  0  0  0
  2  3  1  0  0  0
  2 16  1  0  0  0
  2 17  1  0  0  0
  3  4  1  0  0  0
  4  5  2  0  0  0
  4  6  1  0  0  0
  6 12  1  0  0  0
  6  7  1  0  0  0
  7  8  1  0  0  0
  7 18  1  0  0  0
  7 19  1  0  0  0
  8  9  1  0  0  0
  8 20  1  0  0  0
  8 21  1  0  0  0
  9 10  1  0  0  0
  9 22  1  0  0  0
  9 23  1  0  0  0
 10 11  1  0  0  0
 10 24  1  0  0  0
 10 25  1  0  0  0
 11 12  1  0  0  0
 11 26  1  0  0  0
 11 27  1  0  0  0
 12 28  1  0  0  0
 12 29  1  0  0  0
M  END
>  <i_m_Spin_multiplicity> (1)
1

>  <s_j_Task> (1)
Single Point

>  <s_j_QM_Method> (1)
DFT(b3lyp-d3)

>  <s_j_QM_Basis> (1)
cc-pvtz(-f)

>  <i_j_Number_of_canonical_orbitals> (1)
432

>  <i_j_Geometry_convergence_category> (1)
1

>  <r_j_Gas_Phase_Energy> (1)
-881.608849860795

>  <r_j_Final_Energy> (1)
-881.608849860795

>  <r_j_HOMO> (1)
-0.244001144555407

>  <r_j_LUMO> (1)
-0.00222506115877552

>  <r_j_Polarizability> (1)
136.411826075178

>  <r_j_QM_Dipole_(debye)> (1)
2.09038961503921

>  <r_j_QM_Dipole_X_(debye)> (1)
1.99147794796617

>  <r_j_QM_Dipole_Y_(debye)> (1)
0.402155186144715

>  <r_j_QM_Dipole_Z_(debye)> (1)
0.491950741116551

>  <r_j_Lowest_Frequency_(cm-1)> (1)
60.2056723066954

>  <r_j_Highest_Frequency_(cm-1)> (1)
3084.8560915878

>  <r_j_2nd_Lowest_Frequency_(cm-1)> (1)
83.0504148340747

>  <i_j_Num_Negative_Frequencies> (1)
0

>  <r_j_Zero_Point_Energy_(kcal/mol)> (1)
159.946948370036

>  <r_j_Entropy_(cal/mol/K)_298.15K_1.00E+00atm> (1)
108.819079749191

>  <r_j_Enthalpy_(kcal/mol)_298.15K_1.00E+00atm> (1)
8.42462942684365

>  <r_j_Free_Energy_(kcal/mol)_298.15K_1.00E+00atm> (1)
-24.0197792003776

>  <r_j_Internal_Energy_(kcal/mol)_298.15K_1.00E+00atm> (1)
7.83214383801637

>  <r_j_Heat_Capacity_(cal/mol/K)_298.15K_1.00E+00atm> (1)
48.2523385901993

>  <r_j_ln(Q)_298.15K_1.00E+00atm> (1)
40.540697787976

>  <r_j_Total_Internal_Energy_(au)_298.15K_1.00E+00atm> (1)
-881.341476856515

>  <r_j_Total_Enthalpy_(au)_298.15K_1.00E+00atm> (1)
-881.340532670623

>  <r_j_Total_Free_Energy_(au)_298.15K_1.00E+00atm> (1)
-881.392236127189

>  <r_lp_tautomer_probability> (1)
1

>  <r_epik_Ionization_Penalty> (1)
  0.0000

>  <r_epik_Ionization_Penalty_Charging> (1)
  0.0000

>  <r_epik_Ionization_Penalty_Neutral> (1)
  0.0000

>  <r_epik_State_Penalty> (1)
  0.0000

>  <r_epik_Charging_Adjusted_Penalty> (1)
0

>  <i_epik_Tot_Q> (1)
0

>  <i_epik_Tot_abs_Q> (1)
0

>  <s_lp_Force_Field> (1)
S-OPLS

>  <r_lp_Energy> (1)
10.7776

>  <b_lp_Chiralities_Consistent> (1)
1

$$$$
