16665_4-methyloctane
                    3D
 Schrodinger Suite 2021-3.
 29 28  0  0  1  0            999 V2000
   -2.6852    2.9694    0.0414 C   0  0  0  0  0  0
   -2.1228    1.5452    0.0151 C   0  0  0  0  0  0
   -0.5920    1.5056   -0.0730 C   0  0  0  0  0  0
   -0.0333    0.0772   -0.1108 C   0  0  0  0  0  0
    1.5034   -0.0291   -0.0520 C   0  0  0  0  0  0
    2.1709    0.6850   -1.2378 C   0  0  0  0  0  0
    1.9747   -1.4964    0.0094 C   0  0  0  0  0  0
    1.5530   -2.2764    1.2619 C   0  0  0  0  0  0
    2.1560   -3.6841    1.3076 C   0  0  0  0  0  0
   -3.7782    2.9704    0.1076 H   0  0  0  0  0  0
   -2.4051    3.5206   -0.8638 H   0  0  0  0  0  0
   -2.2983    3.5296    0.9006 H   0  0  0  0  0  0
   -2.4476    1.0044    0.9146 H   0  0  0  0  0  0
   -2.5474    0.9972   -0.8373 H   0  0  0  0  0  0
   -0.2746    2.0621   -0.9641 H   0  0  0  0  0  0
   -0.1657    2.0407    0.7883 H   0  0  0  0  0  0
   -0.4648   -0.4782    0.7311 H   0  0  0  0  0  0
   -0.3883   -0.4285   -1.0217 H   0  0  0  0  0  0
    1.8372    0.4665    0.8736 H   0  0  0  0  0  0
    1.8349    0.2518   -2.1884 H   0  0  0  0  0  0
    3.2609    0.5844   -1.1944 H   0  0  0  0  0  0
    1.9395    1.7538   -1.2588 H   0  0  0  0  0  0
    1.6156   -2.0249   -0.8866 H   0  0  0  0  0  0
    3.0720   -1.5121   -0.0537 H   0  0  0  0  0  0
    1.8591   -1.7151    2.1557 H   0  0  0  0  0  0
    0.4604   -2.3539    1.3098 H   0  0  0  0  0  0
    1.8443   -4.2268    2.2061 H   0  0  0  0  0  0
    3.2515   -3.6454    1.3033 H   0  0  0  0  0  0
    1.8446   -4.2735    0.4373 H   0  0  0  0  0  0
  1  2  1  0  0  0
  1 10  1  0  0  0
  1 11  1  0  0  0
  1 12  1  0  0  0
  2  3  1  0  0  0
  2 13  1  0  0  0
  2 14  1  0  0  0
  3  4  1  0  0  0
  3 15  1  0  0  0
  3 16  1  0  0  0
  4  5  1  0  0  0
  4 17  1  0  0  0
  4 18  1  0  0  0
  5  6  1  0  0  0
  5  7  1  0  0  0
  5 19  1  0  0  0
  6 20  1  0  0  0
  6 21  1  0  0  0
  6 22  1  0  0  0
  7  8  1  0  0  0
  7 23  1  0  0  0
  7 24  1  0  0  0
  8  9  1  0  0  0
  8 25  1  0  0  0
  8 26  1  0  0  0
  9 27  1  0  0  0
  9 28  1  0  0  0
  9 29  1  0  0  0
M  END
>  <i_m_Spin_multiplicity> (1)
1

>  <s_j_Task> (1)
Single Point

>  <s_j_QM_Method> (1)
DFT(b3lyp-d3)

>  <s_j_QM_Basis> (1)
cc-pvtz(-f)

>  <i_j_Number_of_canonical_orbitals> (1)
384

>  <i_j_Geometry_convergence_category> (1)
3

>  <r_j_Gas_Phase_Energy> (1)
-355.169857937582

>  <r_j_Final_Energy> (1)
-355.169857937582

>  <r_j_HOMO> (1)
-0.301459235457279

>  <r_j_LUMO> (1)
0.0192774523157697

>  <r_j_Polarizability> (1)
111.975373200739

>  <r_j_QM_Dipole_(debye)> (1)
0.108479830322688

>  <r_j_QM_Dipole_X_(debye)> (1)
-0.0403009546647861

>  <r_j_QM_Dipole_Y_(debye)> (1)
0.000620653566050261

>  <r_j_QM_Dipole_Z_(debye)> (1)
0.100714057753111

>  <r_j_Lowest_Frequency_(cm-1)> (1)
84.8251632165535

>  <r_j_Highest_Frequency_(cm-1)> (1)
3055.98765040485

>  <r_j_2nd_Lowest_Frequency_(cm-1)> (1)
106.94356045548

>  <i_j_Num_Negative_Frequencies> (1)
0

>  <r_j_Zero_Point_Energy_(kcal/mol)> (1)
171.779041806529

>  <r_j_Entropy_(cal/mol/K)_298.15K_1.00E+00atm> (1)
102.957839788185

>  <r_j_Enthalpy_(kcal/mol)_298.15K_1.00E+00atm> (1)
7.81667667904454

>  <r_j_Free_Energy_(kcal/mol)_298.15K_1.00E+00atm> (1)
-22.8802032538027

>  <r_j_Internal_Energy_(kcal/mol)_298.15K_1.00E+00atm> (1)
7.22419109021726

>  <r_j_Heat_Capacity_(cal/mol/K)_298.15K_1.00E+00atm> (1)
43.4498388474756

>  <r_j_ln(Q)_298.15K_1.00E+00atm> (1)
38.6173160752994

>  <r_j_Total_Internal_Energy_(au)_298.15K_1.00E+00atm> (1)
-354.884598126448

>  <r_j_Total_Enthalpy_(au)_298.15K_1.00E+00atm> (1)
-354.883653940556

>  <r_j_Total_Free_Energy_(au)_298.15K_1.00E+00atm> (1)
-354.932572532865

>  <r_lp_tautomer_probability> (1)
1

>  <r_epik_Ionization_Penalty> (1)
  0.0000

>  <r_epik_Ionization_Penalty_Charging> (1)
  0.0000

>  <r_epik_Ionization_Penalty_Neutral> (1)
  0.0000

>  <r_epik_State_Penalty> (1)
  0.0000

>  <r_epik_Charging_Adjusted_Penalty> (1)
0

>  <i_epik_Tot_Q> (1)
0

>  <i_epik_Tot_abs_Q> (1)
0

>  <s_lp_Force_Field> (1)
S-OPLS

>  <r_lp_Energy> (1)
4.767698

>  <b_lp_Chiralities_Consistent> (1)
1

$$$$
