16664_3-methyloctane
                    3D
 Schrodinger Suite 2021-3.
 29 28  0  0  1  0            999 V2000
   -2.6643    2.9794   -0.0758 C   0  0  0  0  0  0
   -2.1331    1.5456    0.0127 C   0  0  0  0  0  0
   -0.6018    1.4703    0.0068 C   0  0  0  0  0  0
   -0.0638    0.0370    0.0889 C   0  0  0  0  0  0
    1.4690   -0.0293    0.1022 C   0  0  0  0  0  0
    2.0617   -1.4505    0.0351 C   0  0  0  0  0  0
    1.6107   -2.3154    1.2222 C   0  0  0  0  0  0
    3.6022   -1.4273   -0.0392 C   0  0  0  0  0  0
    4.1837   -0.7557   -1.2883 C   0  0  0  0  0  0
   -3.7591    3.0050   -0.0688 H   0  0  0  0  0  0
   -2.3249    3.4692   -0.9957 H   0  0  0  0  0  0
   -2.3110    3.5832    0.7681 H   0  0  0  0  0  0
   -2.5144    1.0674    0.9253 H   0  0  0  0  0  0
   -2.5266    0.9547   -0.8258 H   0  0  0  0  0  0
   -0.2180    1.9536   -0.9033 H   0  0  0  0  0  0
   -0.2066    2.0566    0.8491 H   0  0  0  0  0  0
   -0.4712   -0.4423    0.9880 H   0  0  0  0  0  0
   -0.4448   -0.5426   -0.7646 H   0  0  0  0  0  0
    1.8428    0.5570   -0.7464 H   0  0  0  0  0  0
    1.8472    0.4705    1.0069 H   0  0  0  0  0  0
    1.6923   -1.9227   -0.8894 H   0  0  0  0  0  0
    1.9168   -1.8583    2.1716 H   0  0  0  0  0  0
    2.0601   -3.3133    1.1743 H   0  0  0  0  0  0
    0.5250   -2.4445    1.2497 H   0  0  0  0  0  0
    3.9931   -0.9330    0.8619 H   0  0  0  0  0  0
    3.9648   -2.4629    0.0045 H   0  0  0  0  0  0
    5.2727   -0.8647   -1.3197 H   0  0  0  0  0  0
    3.9625    0.3155   -1.3222 H   0  0  0  0  0  0
    3.7780   -1.2071   -2.2013 H   0  0  0  0  0  0
  1  2  1  0  0  0
  1 10  1  0  0  0
  1 11  1  0  0  0
  1 12  1  0  0  0
  2  3  1  0  0  0
  2 13  1  0  0  0
  2 14  1  0  0  0
  3  4  1  0  0  0
  3 15  1  0  0  0
  3 16  1  0  0  0
  4  5  1  0  0  0
  4 17  1  0  0  0
  4 18  1  0  0  0
  5  6  1  0  0  0
  5 19  1  0  0  0
  5 20  1  0  0  0
  6  7  1  0  0  0
  6  8  1  0  0  0
  6 21  1  0  0  0
  7 22  1  0  0  0
  7 23  1  0  0  0
  7 24  1  0  0  0
  8  9  1  0  0  0
  8 25  1  0  0  0
  8 26  1  0  0  0
  9 27  1  0  0  0
  9 28  1  0  0  0
  9 29  1  0  0  0
M  END
>  <i_m_Spin_multiplicity> (1)
1

>  <s_j_Task> (1)
Single Point

>  <s_j_QM_Method> (1)
DFT(b3lyp-d3)

>  <s_j_QM_Basis> (1)
cc-pvtz(-f)

>  <i_j_Number_of_canonical_orbitals> (1)
384

>  <i_j_Geometry_convergence_category> (1)
3

>  <r_j_Gas_Phase_Energy> (1)
-355.169953898561

>  <r_j_Final_Energy> (1)
-355.169953898561

>  <r_j_HOMO> (1)
-0.299806364242881

>  <r_j_LUMO> (1)
0.0271110657952631

>  <r_j_Polarizability> (1)
111.863502220009

>  <r_j_QM_Dipole_(debye)> (1)
0.0831371497983486

>  <r_j_QM_Dipole_X_(debye)> (1)
-0.0104287018062134

>  <r_j_QM_Dipole_Y_(debye)> (1)
-0.0704828563225008

>  <r_j_QM_Dipole_Z_(debye)> (1)
-0.0428391738932002

>  <r_j_Lowest_Frequency_(cm-1)> (1)
78.9647528194239

>  <r_j_Highest_Frequency_(cm-1)> (1)
3056.77947371866

>  <r_j_2nd_Lowest_Frequency_(cm-1)> (1)
101.978105578103

>  <i_j_Num_Negative_Frequencies> (1)
0

>  <r_j_Zero_Point_Energy_(kcal/mol)> (1)
171.789753833669

>  <r_j_Entropy_(cal/mol/K)_298.15K_1.00E+00atm> (1)
102.935064217063

>  <r_j_Enthalpy_(kcal/mol)_298.15K_1.00E+00atm> (1)
7.81130794674302

>  <r_j_Free_Energy_(kcal/mol)_298.15K_1.00E+00atm> (1)
-22.8787814495742

>  <r_j_Internal_Energy_(kcal/mol)_298.15K_1.00E+00atm> (1)
7.21882235791575

>  <r_j_Heat_Capacity_(cal/mol/K)_298.15K_1.00E+00atm> (1)
43.4455468127222

>  <r_j_ln(Q)_298.15K_1.00E+00atm> (1)
38.6149163473477

>  <r_j_Total_Internal_Energy_(au)_298.15K_1.00E+00atm> (1)
-354.884685572345

>  <r_j_Total_Enthalpy_(au)_298.15K_1.00E+00atm> (1)
-354.883741386452

>  <r_j_Total_Free_Energy_(au)_298.15K_1.00E+00atm> (1)
-354.932649157352

>  <r_lp_tautomer_probability> (1)
1

>  <r_epik_Ionization_Penalty> (1)
  0.0000

>  <r_epik_Ionization_Penalty_Charging> (1)
  0.0000

>  <r_epik_Ionization_Penalty_Neutral> (1)
  0.0000

>  <r_epik_State_Penalty> (1)
  0.0000

>  <r_epik_Charging_Adjusted_Penalty> (1)
0

>  <i_epik_Tot_Q> (1)
0

>  <i_epik_Tot_abs_Q> (1)
0

>  <s_lp_Force_Field> (1)
S-OPLS

>  <r_lp_Energy> (1)
4.673945

>  <b_lp_Chiralities_Consistent> (1)
1

$$$$
