16662_2,5-dimethylheptane
                    3D
 Schrodinger Suite 2021-3.
 29 28  0  0  1  0            999 V2000
   -2.2794   -0.7300   -1.1815 C   0  0  0  0  0  0
   -0.7507   -0.6561   -1.2678 C   0  0  0  0  0  0
   -0.0713    0.0370   -0.0698 C   0  0  0  0  0  0
   -0.5439    1.4897    0.0937 C   0  0  0  0  0  0
    1.4663   -0.0044   -0.1810 C   0  0  0  0  0  0
    2.0806   -1.4112   -0.1790 C   0  0  0  0  0  0
    3.6120   -1.4424   -0.0139 C   0  0  0  0  0  0
    4.3347   -0.7220   -1.1617 C   0  0  0  0  0  0
    4.1082   -2.8900    0.1085 C   0  0  0  0  0  0
   -2.6903   -1.3192   -2.0077 H   0  0  0  0  0  0
   -2.7424    0.2605   -1.2245 H   0  0  0  0  0  0
   -2.5971   -1.2044   -0.2454 H   0  0  0  0  0  0
   -0.3596   -1.6758   -1.3598 H   0  0  0  0  0  0
   -0.4577   -0.1329   -2.1898 H   0  0  0  0  0  0
   -0.3553   -0.5168    0.8394 H   0  0  0  0  0  0
   -0.3253    2.0715   -0.8106 H   0  0  0  0  0  0
   -0.0345    1.9764    0.9325 H   0  0  0  0  0  0
   -1.6198    1.5548    0.2800 H   0  0  0  0  0  0
    1.7644    0.5359   -1.0900 H   0  0  0  0  0  0
    1.8902    0.5625    0.6602 H   0  0  0  0  0  0
    1.6284   -1.9923    0.6375 H   0  0  0  0  0  0
    1.8233   -1.9398   -1.1069 H   0  0  0  0  0  0
    3.8576   -0.9190    0.9228 H   0  0  0  0  0  0
    4.0823   -1.1825   -2.1252 H   0  0  0  0  0  0
    5.4217   -0.7813   -1.0399 H   0  0  0  0  0  0
    4.0650    0.3369   -1.2170 H   0  0  0  0  0  0
    3.8867   -3.4546   -0.8058 H   0  0  0  0  0  0
    3.6264   -3.4089    0.9445 H   0  0  0  0  0  0
    5.1914   -2.9283    0.2674 H   0  0  0  0  0  0
  1  2  1  0  0  0
  1 10  1  0  0  0
  1 11  1  0  0  0
  1 12  1  0  0  0
  2  3  1  0  0  0
  2 13  1  0  0  0
  2 14  1  0  0  0
  3  4  1  0  0  0
  3  5  1  0  0  0
  3 15  1  0  0  0
  4 16  1  0  0  0
  4 17  1  0  0  0
  4 18  1  0  0  0
  5  6  1  0  0  0
  5 19  1  0  0  0
  5 20  1  0  0  0
  6  7  1  0  0  0
  6 21  1  0  0  0
  6 22  1  0  0  0
  7  8  1  0  0  0
  7  9  1  0  0  0
  7 23  1  0  0  0
  8 24  1  0  0  0
  8 25  1  0  0  0
  8 26  1  0  0  0
  9 27  1  0  0  0
  9 28  1  0  0  0
  9 29  1  0  0  0
M  END
>  <i_m_Spin_multiplicity> (1)
1

>  <s_j_Task> (1)
Single Point

>  <s_j_QM_Method> (1)
DFT(b3lyp-d3)

>  <s_j_QM_Basis> (1)
cc-pvtz(-f)

>  <i_j_Number_of_canonical_orbitals> (1)
383

>  <i_j_Geometry_convergence_category> (1)
0

>  <r_j_Gas_Phase_Energy> (1)
-355.170644142563

>  <r_j_Final_Energy> (1)
-355.170644142563

>  <r_j_HOMO> (1)
-0.304645981065531

>  <r_j_LUMO> (1)
0.0260207450903948

>  <r_j_Polarizability> (1)
111.137746067628

>  <r_j_QM_Dipole_(debye)> (1)
0.101066439464371

>  <r_j_QM_Dipole_X_(debye)> (1)
0.0194870461229732

>  <r_j_QM_Dipole_Y_(debye)> (1)
-0.0216070737807875

>  <r_j_QM_Dipole_Z_(debye)> (1)
0.0967874712038606

>  <r_j_Lowest_Frequency_(cm-1)> (1)
73.4739681435158

>  <r_j_Highest_Frequency_(cm-1)> (1)
3060.00639544932

>  <r_j_2nd_Lowest_Frequency_(cm-1)> (1)
103.433878899045

>  <i_j_Num_Negative_Frequencies> (1)
0

>  <r_j_Zero_Point_Energy_(kcal/mol)> (1)
171.625493083765

>  <r_j_Entropy_(cal/mol/K)_298.15K_1.00E+00atm> (1)
101.835245960181

>  <r_j_Enthalpy_(kcal/mol)_298.15K_1.00E+00atm> (1)
7.75435670972967

>  <r_j_Free_Energy_(kcal/mol)_298.15K_1.00E+00atm> (1)
-22.6078218732982

>  <r_j_Internal_Energy_(kcal/mol)_298.15K_1.00E+00atm> (1)
7.1618711209024

>  <r_j_Heat_Capacity_(cal/mol/K)_298.15K_1.00E+00atm> (1)
43.8890019790827

>  <r_j_ln(Q)_298.15K_1.00E+00atm> (1)
38.1575894833942

>  <r_j_Total_Internal_Energy_(au)_298.15K_1.00E+00atm> (1)
-354.88572834009

>  <r_j_Total_Enthalpy_(au)_298.15K_1.00E+00atm> (1)
-354.884784154198

>  <r_j_Total_Free_Energy_(au)_298.15K_1.00E+00atm> (1)
-354.933169365951

>  <r_lp_tautomer_probability> (1)
1

>  <r_epik_Ionization_Penalty> (1)
  0.0000

>  <r_epik_Ionization_Penalty_Charging> (1)
  0.0000

>  <r_epik_Ionization_Penalty_Neutral> (1)
  0.0000

>  <r_epik_State_Penalty> (1)
  0.0000

>  <r_epik_Charging_Adjusted_Penalty> (1)
0

>  <i_epik_Tot_Q> (1)
0

>  <i_epik_Tot_abs_Q> (1)
0

>  <s_lp_Force_Field> (1)
S-OPLS

>  <r_lp_Energy> (1)
4.99241

>  <b_lp_Chiralities_Consistent> (1)
1

$$$$
