16663_4-ethylheptane
                    3D
 Schrodinger Suite 2021-3.
 29 28  0  0  1  0            999 V2000
   -2.1345    1.5581    0.0318 C   0  0  0  0  0  0
   -0.6092    1.4615    0.1324 C   0  0  0  0  0  0
   -0.0792    0.0652   -0.2193 C   0  0  0  0  0  0
    1.4567   -0.0756   -0.1594 C   0  0  0  0  0  0
    2.1231    0.6043   -1.3748 C   0  0  0  0  0  0
    3.6192    0.8865   -1.1999 C   0  0  0  0  0  0
    1.8767   -1.5564   -0.0488 C   0  0  0  0  0  0
    1.6460   -2.1871    1.3307 C   0  0  0  0  0  0
    2.0619   -3.6602    1.3848 C   0  0  0  0  0  0
   -2.4940    2.5571    0.3002 H   0  0  0  0  0  0
   -2.6203    0.8376    0.7000 H   0  0  0  0  0  0
   -2.4760    1.3431   -0.9875 H   0  0  0  0  0  0
   -0.1553    2.2151   -0.5233 H   0  0  0  0  0  0
   -0.2904    1.7163    1.1523 H   0  0  0  0  0  0
   -0.5448   -0.6568    0.4636 H   0  0  0  0  0  0
   -0.4194   -0.2151   -1.2275 H   0  0  0  0  0  0
    1.8078    0.4421    0.7481 H   0  0  0  0  0  0
    1.9628   -0.0277   -2.2601 H   0  0  0  0  0  0
    1.6150    1.5524   -1.5872 H   0  0  0  0  0  0
    4.0371    1.3686   -2.0897 H   0  0  0  0  0  0
    4.1934   -0.0288   -1.0235 H   0  0  0  0  0  0
    3.7923    1.5531   -0.3472 H   0  0  0  0  0  0
    1.3359   -2.1342   -0.8134 H   0  0  0  0  0  0
    2.9413   -1.6591   -0.2947 H   0  0  0  0  0  0
    2.2107   -1.6171    2.0812 H   0  0  0  0  0  0
    0.5901   -2.0987    1.6155 H   0  0  0  0  0  0
    1.9009   -4.0884    2.3798 H   0  0  0  0  0  0
    3.1233   -3.7798    1.1376 H   0  0  0  0  0  0
    1.4880   -4.2579    0.6672 H   0  0  0  0  0  0
  1  2  1  0  0  0
  1 10  1  0  0  0
  1 11  1  0  0  0
  1 12  1  0  0  0
  2  3  1  0  0  0
  2 13  1  0  0  0
  2 14  1  0  0  0
  3  4  1  0  0  0
  3 15  1  0  0  0
  3 16  1  0  0  0
  4  5  1  0  0  0
  4  7  1  0  0  0
  4 17  1  0  0  0
  5  6  1  0  0  0
  5 18  1  0  0  0
  5 19  1  0  0  0
  6 20  1  0  0  0
  6 21  1  0  0  0
  6 22  1  0  0  0
  7  8  1  0  0  0
  7 23  1  0  0  0
  7 24  1  0  0  0
  8  9  1  0  0  0
  8 25  1  0  0  0
  8 26  1  0  0  0
  9 27  1  0  0  0
  9 28  1  0  0  0
  9 29  1  0  0  0
M  END
>  <i_m_Spin_multiplicity> (1)
1

>  <s_j_Task> (1)
Single Point

>  <s_j_QM_Method> (1)
DFT(b3lyp-d3)

>  <s_j_QM_Basis> (1)
cc-pvtz(-f)

>  <i_j_Number_of_canonical_orbitals> (1)
384

>  <i_j_Geometry_convergence_category> (1)
0

>  <r_j_Gas_Phase_Energy> (1)
-355.168283182785

>  <r_j_Final_Energy> (1)
-355.168283182785

>  <r_j_HOMO> (1)
-0.300869175682885

>  <r_j_LUMO> (1)
0.0190887625197691

>  <r_j_Polarizability> (1)
111.353902797006

>  <r_j_QM_Dipole_(debye)> (1)
0.0938573883109478

>  <r_j_QM_Dipole_X_(debye)> (1)
0.00240270376583085

>  <r_j_QM_Dipole_Y_(debye)> (1)
0.0860294165966528

>  <r_j_QM_Dipole_Z_(debye)> (1)
0.0374483088430608

>  <r_j_Lowest_Frequency_(cm-1)> (1)
89.424887665295

>  <r_j_Highest_Frequency_(cm-1)> (1)
3050.78157264261

>  <r_j_2nd_Lowest_Frequency_(cm-1)> (1)
110.190684592035

>  <i_j_Num_Negative_Frequencies> (1)
0

>  <r_j_Zero_Point_Energy_(kcal/mol)> (1)
171.770689085613

>  <r_j_Entropy_(cal/mol/K)_298.15K_1.00E+00atm> (1)
103.043784924848

>  <r_j_Enthalpy_(kcal/mol)_298.15K_1.00E+00atm> (1)
7.8244409164171

>  <r_j_Free_Energy_(kcal/mol)_298.15K_1.00E+00atm> (1)
-22.8980635589263

>  <r_j_Internal_Energy_(kcal/mol)_298.15K_1.00E+00atm> (1)
7.23195532758983

>  <r_j_Heat_Capacity_(cal/mol/K)_298.15K_1.00E+00atm> (1)
43.5129989431814

>  <r_j_ln(Q)_298.15K_1.00E+00atm> (1)
38.6474607833908

>  <r_j_Total_Internal_Energy_(au)_298.15K_1.00E+00atm> (1)
-354.88302430946

>  <r_j_Total_Enthalpy_(au)_298.15K_1.00E+00atm> (1)
-354.882080123567

>  <r_j_Total_Free_Energy_(au)_298.15K_1.00E+00atm> (1)
-354.931039551184

>  <r_lp_tautomer_probability> (1)
1

>  <r_epik_Ionization_Penalty> (1)
  0.0000

>  <r_epik_Ionization_Penalty_Charging> (1)
  0.0000

>  <r_epik_Ionization_Penalty_Neutral> (1)
  0.0000

>  <r_epik_State_Penalty> (1)
  0.0000

>  <r_epik_Charging_Adjusted_Penalty> (1)
0

>  <i_epik_Tot_Q> (1)
0

>  <i_epik_Tot_abs_Q> (1)
0

>  <s_lp_Force_Field> (1)
S-OPLS

>  <r_lp_Energy> (1)
6.094769

>  <b_lp_Chiralities_Consistent> (1)
1

$$$$
