16732_2,3,5-trimethylnaphthalene
                    3D
 Schrodinger Suite 2021-3.
 27 28  0  0  1  0            999 V2000
   -0.0507   -0.0905    0.0001 C   0  0  0  0  0  0
    1.4623    0.0011    0.0000 C   0  0  0  0  0  0
    2.1697    1.2480    0.0000 C   0  0  0  0  0  0
    1.5362    2.5190    0.0000 C   0  0  0  0  0  0
    2.2326    3.7114    0.0000 C   0  0  0  0  0  0
    3.6623    3.6879    0.0001 C   0  0  0  0  0  0
    4.3027    2.4667    0.0001 C   0  0  0  0  0  0
    3.6044    1.2334    0.0000 C   0  0  0  0  0  0
    4.2967   -0.0042   -0.0001 C   0  0  0  0  0  0
    3.5988   -1.1882   -0.0002 C   0  0  0  0  0  0
    2.1874   -1.1765   -0.0001 C   0  0  0  0  0  0
    4.4710    4.9647    0.0001 C   0  0  0  0  0  0
    1.4491    5.0096   -0.0001 C   0  0  0  0  0  0
   -0.5485    0.8792    0.0001 H   0  0  0  0  0  0
   -0.4031   -0.6379    0.8814 H   0  0  0  0  0  0
   -0.4031   -0.6380   -0.8812 H   0  0  0  0  0  0
    0.4518    2.5696    0.0000 H   0  0  0  0  0  0
    5.3902    2.4353    0.0001 H   0  0  0  0  0  0
    5.3837    0.0014   -0.0002 H   0  0  0  0  0  0
    4.1270   -2.1374   -0.0003 H   0  0  0  0  0  0
    1.6521   -2.1233   -0.0001 H   0  0  0  0  0  0
    5.5424    4.7475    0.0002 H   0  0  0  0  0  0
    4.2571    5.5810    0.8813 H   0  0  0  0  0  0
    4.2572    5.5808   -0.8813 H   0  0  0  0  0  0
    2.0881    5.8936    0.0000 H   0  0  0  0  0  0
    0.8005    5.0736    0.8809 H   0  0  0  0  0  0
    0.8009    5.0736   -0.8814 H   0  0  0  0  0  0
  1  2  1  0  0  0
  1 14  1  0  0  0
  1 15  1  0  0  0
  1 16  1  0  0  0
  2 11  1  0  0  0
  2  3  2  0  0  0
  3  8  1  0  0  0
  3  4  1  0  0  0
  4  5  2  0  0  0
  4 17  1  0  0  0
  5  6  1  0  0  0
  5 13  1  0  0  0
  6  7  2  0  0  0
  6 12  1  0  0  0
  7  8  1  0  0  0
  7 18  1  0  0  0
  8  9  2  0  0  0
  9 10  1  0  0  0
  9 19  1  0  0  0
 10 11  2  0  0  0
 10 20  1  0  0  0
 11 21  1  0  0  0
 12 22  1  0  0  0
 12 23  1  0  0  0
 12 24  1  0  0  0
 13 25  1  0  0  0
 13 26  1  0  0  0
 13 27  1  0  0  0
M  END
>  <i_m_Spin_multiplicity> (1)
1

>  <s_j_Task> (1)
Single Point

>  <s_j_QM_Method> (1)
DFT(b3lyp-d3)

>  <s_j_QM_Basis> (1)
cc-pvtz(-f)

>  <i_j_Number_of_canonical_orbitals> (1)
414

>  <i_j_Geometry_convergence_category> (1)
0

>  <r_j_Gas_Phase_Energy> (1)
-504.014528953292

>  <r_j_Final_Energy> (1)
-504.014528953292

>  <r_j_HOMO> (1)
-0.200223596011508

>  <r_j_LUMO> (1)
-0.0328447019309623

>  <r_j_Polarizability> (1)
154.932968272138

>  <r_j_QM_Dipole_(debye)> (1)
0.852452627744334

>  <r_j_QM_Dipole_X_(debye)> (1)
-0.402110250214335

>  <r_j_QM_Dipole_Y_(debye)> (1)
0.751653389612314

>  <r_j_QM_Dipole_Z_(debye)> (1)
-0.00010538075687595

>  <r_j_Lowest_Frequency_(cm-1)> (1)
59.5125153105389

>  <r_j_Highest_Frequency_(cm-1)> (1)
3139.80205875628

>  <r_j_2nd_Lowest_Frequency_(cm-1)> (1)
91.9115987771406

>  <i_j_Num_Negative_Frequencies> (1)
0

>  <r_j_Zero_Point_Energy_(kcal/mol)> (1)
143.771337075214

>  <r_j_Entropy_(cal/mol/K)_298.15K_1.00E+00atm> (1)
104.001267161574

>  <r_j_Enthalpy_(kcal/mol)_298.15K_1.00E+00atm> (1)
7.85584288837073

>  <r_j_Free_Energy_(kcal/mol)_298.15K_1.00E+00atm> (1)
-23.1521349158526

>  <r_j_Internal_Energy_(kcal/mol)_298.15K_1.00E+00atm> (1)
7.26335729954346

>  <r_j_Heat_Capacity_(cal/mol/K)_298.15K_1.00E+00atm> (1)
46.2478197160046

>  <r_j_ln(Q)_298.15K_1.00E+00atm> (1)
39.076283630254

>  <r_j_Total_Internal_Energy_(au)_298.15K_1.00E+00atm> (1)
-503.773839845645

>  <r_j_Total_Enthalpy_(au)_298.15K_1.00E+00atm> (1)
-503.772895659753

>  <r_j_Total_Free_Energy_(au)_298.15K_1.00E+00atm> (1)
-503.82231001808

>  <r_lp_tautomer_probability> (1)
1

>  <r_epik_Ionization_Penalty> (1)
  0.0000

>  <r_epik_Ionization_Penalty_Charging> (1)
  0.0000

>  <r_epik_Ionization_Penalty_Neutral> (1)
  0.0000

>  <r_epik_State_Penalty> (1)
  0.0000

>  <r_epik_Charging_Adjusted_Penalty> (1)
0

>  <i_epik_Tot_Q> (1)
0

>  <i_epik_Tot_abs_Q> (1)
0

>  <s_lp_Force_Field> (1)
S-OPLS

>  <r_lp_Energy> (1)
19.6952

>  <b_lp_Chiralities_Consistent> (1)
1

$$$$
