1674_3-Methylcholanthrene
                    3D
 Schrodinger Suite 2021-3.
 37 41  0  0  1  0            999 V2000
   -0.0388   -0.0003    0.0001 C   0  0  0  0  0  0
    1.4693    0.0305    0.0001 C   0  0  0  0  0  0
    2.1986    1.1965   -0.0002 C   0  0  0  0  0  0
    1.7849    2.6596   -0.0005 C   0  0  0  0  0  0
    3.1348    3.4600   -0.0002 C   0  0  0  0  0  0
    4.2152    2.3936   -0.0001 C   0  0  0  0  0  0
    3.6142    1.1354   -0.0001 C   0  0  0  0  0  0
    4.3519   -0.0717    0.0000 C   0  0  0  0  0  0
    5.7545    0.0361    0.0000 C   0  0  0  0  0  0
    6.3973    1.2817    0.0001 C   0  0  0  0  0  0
    5.6068    2.4983    0.0001 C   0  0  0  0  0  0
    6.2645    3.7760    0.0003 C   0  0  0  0  0  0
    7.6164    3.8750    0.0004 C   0  0  0  0  0  0
    8.4508    2.7035    0.0002 C   0  0  0  0  0  0
    9.8565    2.8331    0.0001 C   0  0  0  0  0  0
   10.6776    1.7216   -0.0002 C   0  0  0  0  0  0
   10.1023    0.4408   -0.0004 C   0  0  0  0  0  0
    8.7256    0.2923   -0.0003 C   0  0  0  0  0  0
    7.8582    1.4071    0.0000 C   0  0  0  0  0  0
    3.5772   -1.2703    0.0002 C   0  0  0  0  0  0
    2.2026   -1.2040    0.0003 C   0  0  0  0  0  0
   -0.4645    1.0064    0.0000 H   0  0  0  0  0  0
   -0.4241   -0.5275    0.8813 H   0  0  0  0  0  0
   -0.4242   -0.5278   -0.8808 H   0  0  0  0  0  0
    1.1759    2.9043   -0.8782 H   0  0  0  0  0  0
    1.1752    2.9046    0.8767 H   0  0  0  0  0  0
    3.2151    4.1122   -0.8776 H   0  0  0  0  0  0
    3.2149    4.1120    0.8773 H   0  0  0  0  0  0
    6.3362   -0.8788    0.0001 H   0  0  0  0  0  0
    5.6494    4.6706    0.0004 H   0  0  0  0  0  0
    8.0984    4.8488    0.0006 H   0  0  0  0  0  0
   10.2862    3.8316    0.0003 H   0  0  0  0  0  0
   11.7574    1.8365   -0.0002 H   0  0  0  0  0  0
   10.7380   -0.4399   -0.0006 H   0  0  0  0  0  0
    8.3165   -0.7113   -0.0005 H   0  0  0  0  0  0
    4.0790   -2.2344    0.0003 H   0  0  0  0  0  0
    1.6321   -2.1305    0.0004 H   0  0  0  0  0  0
  1  2  1  0  0  0
  1 22  1  0  0  0
  1 23  1  0  0  0
  1 24  1  0  0  0
  2 21  1  0  0  0
  2  3  2  0  0  0
  3  7  1  0  0  0
  3  4  1  0  0  0
  4  5  1  0  0  0
  4 25  1  0  0  0
  4 26  1  0  0  0
  5  6  1  0  0  0
  5 27  1  0  0  0
  5 28  1  0  0  0
  6 11  1  0  0  0
  6  7  2  0  0  0
  7  8  1  0  0  0
  8  9  2  0  0  0
  8 20  1  0  0  0
  9 10  1  0  0  0
  9 29  1  0  0  0
 10 19  1  0  0  0
 10 11  2  0  0  0
 11 12  1  0  0  0
 12 13  2  0  0  0
 12 30  1  0  0  0
 13 14  1  0  0  0
 13 31  1  0  0  0
 14 19  1  0  0  0
 14 15  2  0  0  0
 15 16  1  0  0  0
 15 32  1  0  0  0
 16 17  2  0  0  0
 16 33  1  0  0  0
 17 18  1  0  0  0
 17 34  1  0  0  0
 18 19  2  0  0  0
 18 35  1  0  0  0
 20 21  2  0  0  0
 20 36  1  0  0  0
 21 37  1  0  0  0
M  END
>  <i_m_Spin_multiplicity> (1)
1

>  <s_j_Task> (1)
Single Point

>  <s_j_QM_Method> (1)
DFT(b3lyp-d3)

>  <s_j_QM_Basis> (1)
cc-pvtz(-f)

>  <i_j_Number_of_canonical_orbitals> (1)
607

>  <i_j_Geometry_convergence_category> (1)
0

>  <r_j_Gas_Phase_Energy> (1)
-810.184354809498

>  <r_j_Final_Energy> (1)
-810.184354809498

>  <r_j_HOMO> (1)
-0.18694106392929

>  <r_j_LUMO> (1)
-0.0535311684409296

>  <r_j_Polarizability> (1)
267.552793519725

>  <r_j_QM_Dipole_(debye)> (1)
1.24929019178433

>  <r_j_QM_Dipole_X_(debye)> (1)
-1.15167848498077

>  <r_j_QM_Dipole_Y_(debye)> (1)
0.484110156349328

>  <r_j_QM_Dipole_Z_(debye)> (1)
8.39067503653058e-05

>  <r_j_Lowest_Frequency_(cm-1)> (1)
69.0223987894074

>  <r_j_Highest_Frequency_(cm-1)> (1)
3162.93987484788

>  <r_j_2nd_Lowest_Frequency_(cm-1)> (1)
82.5555575490976

>  <i_j_Num_Negative_Frequencies> (1)
0

>  <r_j_Zero_Point_Energy_(kcal/mol)> (1)
189.651873844241

>  <r_j_Entropy_(cal/mol/K)_298.15K_1.00E+00atm> (1)
118.788996705563

>  <r_j_Enthalpy_(kcal/mol)_298.15K_1.00E+00atm> (1)
9.92964341711773

>  <r_j_Free_Energy_(kcal/mol)_298.15K_1.00E+00atm> (1)
-25.487295950646

>  <r_j_Internal_Energy_(kcal/mol)_298.15K_1.00E+00atm> (1)
9.33715782829046

>  <r_j_Heat_Capacity_(cal/mol/K)_298.15K_1.00E+00atm> (1)
64.0970983052972

>  <r_j_ln(Q)_298.15K_1.00E+00atm> (1)
43.0175795517555

>  <r_j_Total_Internal_Energy_(au)_298.15K_1.00E+00atm> (1)
-809.867245600497

>  <r_j_Total_Enthalpy_(au)_298.15K_1.00E+00atm> (1)
-809.866301414605

>  <r_j_Total_Free_Energy_(au)_298.15K_1.00E+00atm> (1)
-809.922741900463

>  <r_lp_tautomer_probability> (1)
1

>  <r_epik_Ionization_Penalty> (1)
  0.0000

>  <r_epik_Ionization_Penalty_Charging> (1)
  0.0000

>  <r_epik_Ionization_Penalty_Neutral> (1)
  0.0000

>  <r_epik_State_Penalty> (1)
  0.0000

>  <r_epik_Charging_Adjusted_Penalty> (1)
0

>  <i_epik_Tot_Q> (1)
0

>  <i_epik_Tot_abs_Q> (1)
0

>  <s_lp_Force_Field> (1)
S-OPLS

>  <r_lp_Energy> (1)
41.4616

>  <b_lp_Chiralities_Consistent> (1)
1

$$$$
