16821_5-octyldihydro-2(3H)-furanone
                    3D
 Schrodinger Suite 2021-3.
 36 36  0  0  1  0            999 V2000
   -0.8857    3.7660   -1.1919 C   0  0  0  0  0  0
   -0.2093    2.3930   -1.2528 C   0  0  0  0  0  0
   -0.5598    1.5061   -0.0501 C   0  0  0  0  0  0
    0.0230    0.0859   -0.1128 C   0  0  0  0  0  0
    1.5549    0.0224   -0.0515 C   0  0  0  0  0  0
    2.0952   -1.4121   -0.0403 C   0  0  0  0  0  0
    3.6245   -1.4827    0.0221 C   0  0  0  0  0  0
    4.1554   -2.9205    0.0336 C   0  0  0  0  0  0
    5.6715   -3.0090    0.0879 C   0  0  0  0  0  0
    6.2563   -4.4324    0.0983 C   0  0  0  0  0  0
    7.6012   -4.2384   -0.6051 C   0  0  0  0  0  0
    7.3441   -3.0496   -1.5274 C   0  0  0  0  0  0
    7.9858   -2.6898   -2.4790 O   0  0  0  0  0  0
    6.2239   -2.3938   -1.1079 O   0  0  0  0  0  0
   -0.6231    4.3834   -2.0571 H   0  0  0  0  0  0
   -0.5870    4.3122   -0.2897 H   0  0  0  0  0  0
   -1.9773    3.6676   -1.1704 H   0  0  0  0  0  0
   -0.5039    1.8771   -2.1772 H   0  0  0  0  0  0
    0.8776    2.5283   -1.3130 H   0  0  0  0  0  0
   -0.2205    1.9984    0.8730 H   0  0  0  0  0  0
   -1.6534    1.4376    0.0287 H   0  0  0  0  0  0
   -0.3871   -0.5039    0.7184 H   0  0  0  0  0  0
   -0.3224   -0.4069   -1.0330 H   0  0  0  0  0  0
    1.9885    0.5586   -0.9053 H   0  0  0  0  0  0
    1.9032    0.5503    0.8482 H   0  0  0  0  0  0
    1.6682   -1.9558    0.8150 H   0  0  0  0  0  0
    1.7440   -1.9385   -0.9393 H   0  0  0  0  0  0
    4.0577   -0.9527   -0.8342 H   0  0  0  0  0  0
    3.9783   -0.9577    0.9209 H   0  0  0  0  0  0
    3.7550   -3.4646    0.9003 H   0  0  0  0  0  0
    3.8131   -3.4547   -0.8623 H   0  0  0  0  0  0
    6.0505   -2.4355    0.9466 H   0  0  0  0  0  0
    6.3326   -4.8367    1.1104 H   0  0  0  0  0  0
    5.6113   -5.0979   -0.4864 H   0  0  0  0  0  0
    8.3960   -3.9534    0.0949 H   0  0  0  0  0  0
    7.9585   -5.0926   -1.1823 H   0  0  0  0  0  0
  1  2  1  0  0  0
  1 15  1  0  0  0
  1 16  1  0  0  0
  1 17  1  0  0  0
  2  3  1  0  0  0
  2 18  1  0  0  0
  2 19  1  0  0  0
  3  4  1  0  0  0
  3 20  1  0  0  0
  3 21  1  0  0  0
  4  5  1  0  0  0
  4 22  1  0  0  0
  4 23  1  0  0  0
  5  6  1  0  0  0
  5 24  1  0  0  0
  5 25  1  0  0  0
  6  7  1  0  0  0
  6 26  1  0  0  0
  6 27  1  0  0  0
  7  8  1  0  0  0
  7 28  1  0  0  0
  7 29  1  0  0  0
  8  9  1  0  0  0
  8 30  1  0  0  0
  8 31  1  0  0  0
  9 14  1  0  0  0
  9 10  1  0  0  0
  9 32  1  0  0  0
 10 11  1  0  0  0
 10 33  1  0  0  0
 10 34  1  0  0  0
 11 12  1  0  0  0
 11 35  1  0  0  0
 11 36  1  0  0  0
 12 13  2  0  0  0
 12 14  1  0  0  0
M  END
>  <i_m_Spin_multiplicity> (1)
1

>  <s_j_Task> (1)
Single Point

>  <s_j_QM_Method> (1)
DFT(b3lyp-d3)

>  <s_j_QM_Basis> (1)
cc-pvtz(-f)

>  <i_j_Number_of_canonical_orbitals> (1)
517

>  <i_j_Geometry_convergence_category> (1)
0

>  <r_j_Gas_Phase_Energy> (1)
-621.250253201398

>  <r_j_Final_Energy> (1)
-621.250253201398

>  <r_j_HOMO> (1)
-0.282788230461174

>  <r_j_LUMO> (1)
-0.0113985468361631

>  <r_j_Polarizability> (1)
149.009869873004

>  <r_j_QM_Dipole_(debye)> (1)
4.43817498881999

>  <r_j_QM_Dipole_X_(debye)> (1)
-1.82700103659667

>  <r_j_QM_Dipole_Y_(debye)> (1)
-2.02242525869032

>  <r_j_QM_Dipole_Z_(debye)> (1)
3.50275042169342

>  <r_j_Lowest_Frequency_(cm-1)> (1)
44.006171049815

>  <r_j_Highest_Frequency_(cm-1)> (1)
3082.38755289232

>  <r_j_2nd_Lowest_Frequency_(cm-1)> (1)
64.3681479194293

>  <i_j_Num_Negative_Frequencies> (1)
0

>  <r_j_Zero_Point_Energy_(kcal/mol)> (1)
204.04725896328

>  <r_j_Entropy_(cal/mol/K)_298.15K_1.00E+00atm> (1)
120.85996021797

>  <r_j_Enthalpy_(kcal/mol)_298.15K_1.00E+00atm> (1)
9.92749613060048

>  <r_j_Free_Energy_(kcal/mol)_298.15K_1.00E+00atm> (1)
-26.1069010083873

>  <r_j_Internal_Energy_(kcal/mol)_298.15K_1.00E+00atm> (1)
9.3350105417732

>  <r_j_Heat_Capacity_(cal/mol/K)_298.15K_1.00E+00atm> (1)
57.0892362899528

>  <r_j_ln(Q)_298.15K_1.00E+00atm> (1)
44.063351920612

>  <r_j_Total_Internal_Energy_(au)_298.15K_1.00E+00atm> (1)
-620.910206907746

>  <r_j_Total_Enthalpy_(au)_298.15K_1.00E+00atm> (1)
-620.909262721854

>  <r_j_Total_Free_Energy_(au)_298.15K_1.00E+00atm> (1)
-620.966687189311

>  <r_lp_tautomer_probability> (1)
1

>  <r_epik_Ionization_Penalty> (1)
  0.0000

>  <r_epik_Ionization_Penalty_Charging> (1)
  0.0000

>  <r_epik_Ionization_Penalty_Neutral> (1)
  0.0000

>  <r_epik_State_Penalty> (1)
  0.0000

>  <r_epik_Charging_Adjusted_Penalty> (1)
0

>  <i_epik_Tot_Q> (1)
0

>  <i_epik_Tot_abs_Q> (1)
0

>  <s_lp_Force_Field> (1)
S-OPLS

>  <r_lp_Energy> (1)
0.502984

>  <b_lp_Chiralities_Consistent> (1)
1

>  <s_epik_Chemistry_Notes> (1)
This compound has an ester and may undergo hydrolysis at high or low pH.

$$$$
