17085_Tricosanoic acid
                    3D
 Schrodinger Suite 2021-3.
 70 69  0  0  1  0            999 V2000
    0.1894    2.0944   11.3867 C   0  0  0  0  0  0
   -0.3026    1.4042   10.1111 C   0  0  0  0  0  0
    0.0038    2.2017    8.8376 C   0  0  0  0  0  0
   -0.4823    1.5116    7.5584 C   0  0  0  0  0  0
   -0.1722    2.2966    6.2785 C   0  0  0  0  0  0
   -0.6426    1.5844    5.0052 C   0  0  0  0  0  0
   -0.3141    2.3452    3.7155 C   0  0  0  0  0  0
   -0.7433    1.5975    2.4476 C   0  0  0  0  0  0
   -0.3597    2.3275    1.1547 C   0  0  0  0  0  0
   -0.7792    1.6010   -0.1358 C   0  0  0  0  0  0
   -0.2513    0.1619   -0.2794 C   0  0  0  0  0  0
    1.2717    0.0304   -0.1577 C   0  0  0  0  0  0
    1.7797   -1.4031   -0.3531 C   0  0  0  0  0  0
    3.2890   -1.5404   -0.1231 C   0  0  0  0  0  0
    3.8202   -2.9681   -0.2949 C   0  0  0  0  0  0
    5.3165   -3.0925    0.0150 C   0  0  0  0  0  0
    5.8763   -4.5087   -0.1596 C   0  0  0  0  0  0
    7.3601   -4.6216    0.2108 C   0  0  0  0  0  0
    7.9490   -6.0219    0.0073 C   0  0  0  0  0  0
    9.4235   -6.1293    0.4192 C   0  0  0  0  0  0
   10.0425   -7.5180    0.2015 C   0  0  0  0  0  0
   10.1348   -7.9735   -1.2562 C   0  0  0  0  0  0
   11.1000   -9.2087   -1.4784 C   0  0  0  0  0  0
   10.8455   -9.8953   -2.4967 O   0  0  0  0  0  0
   12.0235   -9.3332   -0.6322 O   0  5  0  0  0  0
   -0.0419    1.5041   12.2797 H   0  0  0  0  0  0
   -0.2769    3.0792   11.5073 H   0  0  0  0  0  0
    1.2748    2.2455   11.3589 H   0  0  0  0  0  0
    0.1555    0.4089   10.0317 H   0  0  0  0  0  0
   -1.3860    1.2342   10.1788 H   0  0  0  0  0  0
   -0.4554    3.1982    8.9132 H   0  0  0  0  0  0
    1.0878    2.3732    8.7695 H   0  0  0  0  0  0
   -0.0245    0.5144    7.4897 H   0  0  0  0  0  0
   -1.5665    1.3415    7.6266 H   0  0  0  0  0  0
   -0.6387    3.2907    6.3366 H   0  0  0  0  0  0
    0.9110    2.4739    6.2153 H   0  0  0  0  0  0
   -0.1826    0.5867    4.9608 H   0  0  0  0  0  0
   -1.7274    1.4138    5.0621 H   0  0  0  0  0  0
   -0.7911    3.3356    3.7405 H   0  0  0  0  0  0
    0.7687    2.5320    3.6729 H   0  0  0  0  0  0
   -0.2854    0.6000    2.4582 H   0  0  0  0  0  0
   -1.8303    1.4314    2.4670 H   0  0  0  0  0  0
   -0.8119    3.3288    1.1594 H   0  0  0  0  0  0
    0.7259    2.4918    1.1473 H   0  0  0  0  0  0
   -1.8762    1.5816   -0.1952 H   0  0  0  0  0  0
   -0.4376    2.1935   -0.9955 H   0  0  0  0  0  0
   -0.7260   -0.4830    0.4721 H   0  0  0  0  0  0
   -0.5706   -0.2336   -1.2531 H   0  0  0  0  0  0
    1.7571    0.6951   -0.8872 H   0  0  0  0  0  0
    1.5943    0.3831    0.8310 H   0  0  0  0  0  0
    1.2471   -2.0724    0.3383 H   0  0  0  0  0  0
    1.5260   -1.7501   -1.3649 H   0  0  0  0  0  0
    3.8249   -0.8685   -0.8091 H   0  0  0  0  0  0
    3.5290   -1.1875    0.8907 H   0  0  0  0  0  0
    3.2564   -3.6475    0.3609 H   0  0  0  0  0  0
    3.6272   -3.3102   -1.3218 H   0  0  0  0  0  0
    5.8789   -2.3995   -0.6278 H   0  0  0  0  0  0
    5.4973   -2.7572    1.0470 H   0  0  0  0  0  0
    5.2937   -5.2097    0.4559 H   0  0  0  0  0  0
    5.7338   -4.8318   -1.2008 H   0  0  0  0  0  0
    7.9364   -3.8980   -0.3847 H   0  0  0  0  0  0
    7.4916   -4.3173    1.2604 H   0  0  0  0  0  0
    7.3604   -6.7534    0.5813 H   0  0  0  0  0  0
    7.8447   -6.3113   -1.0460 H   0  0  0  0  0  0
   10.0027   -5.3850   -0.1496 H   0  0  0  0  0  0
    9.5116   -5.8370    1.4785 H   0  0  0  0  0  0
   11.0632   -7.5494    0.5982 H   0  0  0  0  0  0
    9.4755   -8.2603    0.7845 H   0  0  0  0  0  0
    9.1542   -8.2256   -1.6782 H   0  0  0  0  0  0
   10.5281   -7.1438   -1.8678 H   0  0  0  0  0  0
  1  2  1  0  0  0
  1 26  1  0  0  0
  1 27  1  0  0  0
  1 28  1  0  0  0
  2  3  1  0  0  0
  2 29  1  0  0  0
  2 30  1  0  0  0
  3  4  1  0  0  0
  3 31  1  0  0  0
  3 32  1  0  0  0
  4  5  1  0  0  0
  4 33  1  0  0  0
  4 34  1  0  0  0
  5  6  1  0  0  0
  5 35  1  0  0  0
  5 36  1  0  0  0
  6  7  1  0  0  0
  6 37  1  0  0  0
  6 38  1  0  0  0
  7  8  1  0  0  0
  7 39  1  0  0  0
  7 40  1  0  0  0
  8  9  1  0  0  0
  8 41  1  0  0  0
  8 42  1  0  0  0
  9 10  1  0  0  0
  9 43  1  0  0  0
  9 44  1  0  0  0
 10 11  1  0  0  0
 10 45  1  0  0  0
 10 46  1  0  0  0
 11 12  1  0  0  0
 11 47  1  0  0  0
 11 48  1  0  0  0
 12 13  1  0  0  0
 12 49  1  0  0  0
 12 50  1  0  0  0
 13 14  1  0  0  0
 13 51  1  0  0  0
 13 52  1  0  0  0
 14 15  1  0  0  0
 14 53  1  0  0  0
 14 54  1  0  0  0
 15 16  1  0  0  0
 15 55  1  0  0  0
 15 56  1  0  0  0
 16 17  1  0  0  0
 16 57  1  0  0  0
 16 58  1  0  0  0
 17 18  1  0  0  0
 17 59  1  0  0  0
 17 60  1  0  0  0
 18 19  1  0  0  0
 18 61  1  0  0  0
 18 62  1  0  0  0
 19 20  1  0  0  0
 19 63  1  0  0  0
 19 64  1  0  0  0
 20 21  1  0  0  0
 20 65  1  0  0  0
 20 66  1  0  0  0
 21 22  1  0  0  0
 21 67  1  0  0  0
 21 68  1  0  0  0
 22 23  1  0  0  0
 22 69  1  0  0  0
 22 70  1  0  0  0
 23 24  2  0  0  0
 23 25  1  0  0  0
M  END
>  <i_m_Spin_multiplicity> (1)
1

>  <s_j_Task> (1)
Single Point

>  <s_j_QM_Method> (1)
DFT(b3lyp-d3)

>  <s_j_QM_Basis> (1)
6-31g**

>  <i_j_Number_of_canonical_orbitals> (1)
600

>  <r_j_Gas_Phase_Energy> (1)
-1054.21359333492

>  <r_j_Final_Energy> (1)
-1054.21359333492

>  <r_j_HOMO> (1)
-0.00604678055434571

>  <r_j_LUMO> (1)
0.117341855212031

>  <r_j_Polarizability> (1)
261.383568318292

>  <r_j_QM_Dipole_(debye)> (1)
50.2389671988204

>  <r_j_QM_Dipole_X_(debye)> (1)
-34.1444958266827

>  <r_j_QM_Dipole_Y_(debye)> (1)
33.158217505319

>  <r_j_QM_Dipole_Z_(debye)> (1)
16.0822834764145

>  <r_j_Lowest_Frequency_(cm-1)> (1)
-8.82068852950013

>  <r_j_Highest_Frequency_(cm-1)> (1)
3105.69516014995

>  <r_j_2nd_Lowest_Frequency_(cm-1)> (1)
14.328284727381

>  <i_j_Num_Negative_Frequencies> (1)
1

>  <r_j_Zero_Point_Energy_(kcal/mol)> (1)
408.333025863668

>  <r_j_Entropy_(cal/mol/K)_298.15K_1.00E+00atm> (1)
188.92724248702

>  <r_j_Enthalpy_(kcal/mol)_298.15K_1.00E+00atm> (1)
19.1260762052783

>  <r_j_Free_Energy_(kcal/mol)_298.15K_1.00E+00atm> (1)
-37.2025811422268

>  <r_j_Internal_Energy_(kcal/mol)_298.15K_1.00E+00atm> (1)
18.533590616451

>  <r_j_Heat_Capacity_(cal/mol/K)_298.15K_1.00E+00atm> (1)
111.207477570347

>  <r_j_ln(Q)_298.15K_1.00E+00atm> (1)
62.7906937211132

>  <r_j_Total_Internal_Energy_(au)_298.15K_1.00E+00atm> (1)
-1053.53333807682

>  <r_j_Total_Enthalpy_(au)_298.15K_1.00E+00atm> (1)
-1053.53239389092

>  <r_j_Total_Free_Energy_(au)_298.15K_1.00E+00atm> (1)
-1053.62215932083

>  <i_j_Geometry_convergence_category> (1)
1

>  <r_epik_Ionization_Penalty> (1)
  0.0049

>  <r_epik_Ionization_Penalty_Charging> (1)
  0.0049

>  <r_epik_Ionization_Penalty_Neutral> (1)
  0.0000

>  <r_epik_State_Penalty> (1)
  0.0035

>  <r_epik_Charging_Adjusted_Penalty> (1)
0.00839777765143097

>  <i_epik_Tot_Q> (1)
-1

>  <i_epik_Tot_abs_Q> (1)
1

>  <s_lp_Force_Field> (1)
S-OPLS

>  <r_lp_Energy> (1)
15.395494

>  <b_lp_Chiralities_Consistent> (1)
1

$$$$
