17100_Alpha-terpineol
                    3D
 Schrodinger Suite 2021-3.
 29 29  0  0  1  0            999 V2000
   -4.2243   -1.3052    0.0261 C   0  0  0  0  0  0
   -2.7481   -1.0097    0.0505 C   0  0  0  0  0  0
   -2.0400   -0.9634    1.1849 C   0  0  0  0  0  0
   -0.5732   -0.6302    1.2736 C   0  0  0  0  0  0
   -0.0023   -0.0358   -0.0303 C   0  0  0  0  0  0
   -0.5603   -0.8303   -1.2252 C   0  0  0  0  0  0
   -2.0909   -0.7494   -1.2858 C   0  0  0  0  0  0
    1.5489    0.0286   -0.0127 C   0  0  0  0  0  0
    2.1023    0.7258   -1.2668 C   0  0  0  0  0  0
    2.0685    0.7579    1.2385 C   0  0  0  0  0  0
    1.9941   -1.3395    0.0118 O   0  0  0  0  0  0
   -4.7810   -0.4862   -0.4496 H   0  0  0  0  0  0
   -4.6302   -1.4498    1.0318 H   0  0  0  0  0  0
   -4.4382   -2.2075   -0.5621 H   0  0  0  0  0  0
   -2.5415   -1.1731    2.1297 H   0  0  0  0  0  0
   -0.4268    0.0709    2.1049 H   0  0  0  0  0  0
    0.0027   -1.5296    1.5334 H   0  0  0  0  0  0
   -0.3584    1.0017   -0.1159 H   0  0  0  0  0  0
   -0.1452   -0.4684   -2.1704 H   0  0  0  0  0  0
   -0.2456   -1.8738   -1.1197 H   0  0  0  0  0  0
   -2.4711   -1.4664   -2.0268 H   0  0  0  0  0  0
   -2.4043    0.2407   -1.6532 H   0  0  0  0  0  0
    1.7068    1.7425   -1.3635 H   0  0  0  0  0  0
    1.8562    0.1662   -2.1708 H   0  0  0  0  0  0
    3.1948    0.7992   -1.2071 H   0  0  0  0  0  0
    1.6525    1.7684    1.3123 H   0  0  0  0  0  0
    3.1604    0.8512    1.1967 H   0  0  0  0  0  0
    1.8150    0.2076    2.1464 H   0  0  0  0  0  0
    2.9595   -1.3328    0.0527 H   0  0  0  0  0  0
  1  2  1  0  0  0
  1 12  1  0  0  0
  1 13  1  0  0  0
  1 14  1  0  0  0
  2  7  1  0  0  0
  2  3  2  0  0  0
  3  4  1  0  0  0
  3 15  1  0  0  0
  4  5  1  0  0  0
  4 16  1  0  0  0
  4 17  1  0  0  0
  5  6  1  0  0  0
  5  8  1  0  0  0
  5 18  1  0  0  0
  6  7  1  0  0  0
  6 19  1  0  0  0
  6 20  1  0  0  0
  7 21  1  0  0  0
  7 22  1  0  0  0
  8  9  1  0  0  0
  8 10  1  0  0  0
  8 11  1  0  0  0
  9 23  1  0  0  0
  9 24  1  0  0  0
  9 25  1  0  0  0
 10 26  1  0  0  0
 10 27  1  0  0  0
 10 28  1  0  0  0
 11 29  1  0  0  0
M  END
>  <i_m_Spin_multiplicity> (1)
1

>  <s_j_Task> (1)
Single Point

>  <s_j_QM_Method> (1)
DFT(b3lyp-d3)

>  <s_j_QM_Basis> (1)
cc-pvtz(-f)

>  <i_j_Number_of_canonical_orbitals> (1)
410

>  <i_j_Geometry_convergence_category> (1)
3

>  <r_j_Gas_Phase_Energy> (1)
-467.310703957899

>  <r_j_Final_Energy> (1)
-467.310703957899

>  <r_j_HOMO> (1)
-0.234516311075624

>  <r_j_LUMO> (1)
0.0160322934371644

>  <r_j_Polarizability> (1)
120.579238066566

>  <r_j_QM_Dipole_(debye)> (1)
1.54201381495208

>  <r_j_QM_Dipole_X_(debye)> (1)
1.04377559788754

>  <r_j_QM_Dipole_Y_(debye)> (1)
1.1207162281631

>  <r_j_QM_Dipole_Z_(debye)> (1)
-0.179817248031071

>  <r_j_Lowest_Frequency_(cm-1)> (1)
84.693948238685

>  <r_j_Highest_Frequency_(cm-1)> (1)
3756.65601190325

>  <r_j_2nd_Lowest_Frequency_(cm-1)> (1)
100.990849440859

>  <i_j_Num_Negative_Frequencies> (1)
0

>  <r_j_Zero_Point_Energy_(kcal/mol)> (1)
164.432397200113

>  <r_j_Entropy_(cal/mol/K)_298.15K_1.00E+00atm> (1)
101.67774603557

>  <r_j_Enthalpy_(kcal/mol)_298.15K_1.00E+00atm> (1)
7.84619544859166

>  <r_j_Free_Energy_(kcal/mol)_298.15K_1.00E+00atm> (1)
-22.4690245319137

>  <r_j_Internal_Energy_(kcal/mol)_298.15K_1.00E+00atm> (1)
7.25370985976439

>  <r_j_Heat_Capacity_(cal/mol/K)_298.15K_1.00E+00atm> (1)
47.0563387915151

>  <r_j_ln(Q)_298.15K_1.00E+00atm> (1)
37.9233266692399

>  <r_j_Total_Internal_Energy_(au)_298.15K_1.00E+00atm> (1)
-467.037104729093

>  <r_j_Total_Enthalpy_(au)_298.15K_1.00E+00atm> (1)
-467.036160543201

>  <r_j_Total_Free_Energy_(au)_298.15K_1.00E+00atm> (1)
-467.084470921657

>  <r_lp_tautomer_probability> (1)
1

>  <r_epik_Ionization_Penalty> (1)
  0.0000

>  <r_epik_Ionization_Penalty_Charging> (1)
  0.0000

>  <r_epik_Ionization_Penalty_Neutral> (1)
  0.0000

>  <r_epik_State_Penalty> (1)
  0.0000

>  <r_epik_Charging_Adjusted_Penalty> (1)
0

>  <i_epik_Tot_Q> (1)
0

>  <i_epik_Tot_abs_Q> (1)
0

>  <s_lp_Force_Field> (1)
S-OPLS

>  <r_lp_Energy> (1)
3.99592

>  <b_lp_Chiralities_Consistent> (1)
1

$$$$
