17148_1,2-dimethylcyclopentane
                    3D
 Schrodinger Suite 2021-3.
 21 21  0  0  1  0            999 V2000
   -0.0196   -0.0923   -0.0150 C   0  0  0  0  0  0
    1.5042    0.0099   -0.0179 C   0  0  0  0  0  0
    2.0794    0.8021   -1.2090 C   0  0  0  0  0  0
    3.5052    1.2390   -0.7720 C   0  0  0  0  0  0
    3.5707    0.9771    0.7581 C   0  0  0  0  0  0
    2.1138    0.7346    1.2003 C   0  0  0  0  0  0
    1.9806   -0.0072    2.5286 C   0  0  0  0  0  0
   -0.4736    0.9051    0.0344 H   0  0  0  0  0  0
   -0.3854   -0.6694    0.8408 H   0  0  0  0  0  0
   -0.3872   -0.5801   -0.9243 H   0  0  0  0  0  0
    1.9264   -1.0079   -0.0382 H   0  0  0  0  0  0
    2.0741    0.2233   -2.1383 H   0  0  0  0  0  0
    1.4499    1.6845   -1.3833 H   0  0  0  0  0  0
    4.2786    0.6720   -1.2995 H   0  0  0  0  0  0
    3.6797    2.2939   -1.0061 H   0  0  0  0  0  0
    4.1572    0.0717    0.9625 H   0  0  0  0  0  0
    4.0467    1.7921    1.3129 H   0  0  0  0  0  0
    1.6081    1.7098    1.2880 H   0  0  0  0  0  0
    2.4496   -0.9969    2.4673 H   0  0  0  0  0  0
    0.9319   -0.1505    2.8093 H   0  0  0  0  0  0
    2.4683    0.5419    3.3414 H   0  0  0  0  0  0
  1  2  1  0  0  0
  1  8  1  0  0  0
  1  9  1  0  0  0
  1 10  1  0  0  0
  2  6  1  0  0  0
  2  3  1  0  0  0
  2 11  1  0  0  0
  3  4  1  0  0  0
  3 12  1  0  0  0
  3 13  1  0  0  0
  4  5  1  0  0  0
  4 14  1  0  0  0
  4 15  1  0  0  0
  5  6  1  0  0  0
  5 16  1  0  0  0
  5 17  1  0  0  0
  6  7  1  0  0  0
  6 18  1  0  0  0
  7 19  1  0  0  0
  7 20  1  0  0  0
  7 21  1  0  0  0
M  END
>  <i_m_Spin_multiplicity> (1)
1

>  <s_j_Task> (1)
Single Point

>  <s_j_QM_Method> (1)
DFT(b3lyp-d3)

>  <s_j_QM_Basis> (1)
cc-pvtz(-f)

>  <i_j_Number_of_canonical_orbitals> (1)
284

>  <i_j_Geometry_convergence_category> (1)
0

>  <r_j_Gas_Phase_Energy> (1)
-275.29648930537

>  <r_j_Final_Energy> (1)
-275.29648930537

>  <r_j_HOMO> (1)
-0.303468124658043

>  <r_j_LUMO> (1)
0.0322558882830548

>  <r_j_Polarizability> (1)
81.4963398468474

>  <r_j_QM_Dipole_(debye)> (1)
0.00541008634900328

>  <r_j_QM_Dipole_X_(debye)> (1)
0.00411641033617304

>  <r_j_QM_Dipole_Y_(debye)> (1)
0.00204785709289701

>  <r_j_QM_Dipole_Z_(debye)> (1)
-0.00285139993248769

>  <r_j_Lowest_Frequency_(cm-1)> (1)
136.264189284556

>  <r_j_Highest_Frequency_(cm-1)> (1)
3048.22375494821

>  <r_j_2nd_Lowest_Frequency_(cm-1)> (1)
167.296848157414

>  <i_j_Num_Negative_Frequencies> (1)
0

>  <r_j_Zero_Point_Energy_(kcal/mol)> (1)
123.019622646612

>  <r_j_Entropy_(cal/mol/K)_298.15K_1.00E+00atm> (1)
82.7604193075474

>  <r_j_Enthalpy_(kcal/mol)_298.15K_1.00E+00atm> (1)
5.25349619672478

>  <r_j_Free_Energy_(kcal/mol)_298.15K_1.00E+00atm> (1)
-19.4215228198205

>  <r_j_Internal_Energy_(kcal/mol)_298.15K_1.00E+00atm> (1)
4.6610106078975

>  <r_j_Heat_Capacity_(cal/mol/K)_298.15K_1.00E+00atm> (1)
29.2102149502237

>  <r_j_ln(Q)_298.15K_1.00E+00atm> (1)
32.7797387583082

>  <r_j_Total_Internal_Energy_(au)_298.15K_1.00E+00atm> (1)
-275.093017263339

>  <r_j_Total_Enthalpy_(au)_298.15K_1.00E+00atm> (1)
-275.092073077447

>  <r_j_Total_Free_Energy_(au)_298.15K_1.00E+00atm> (1)
-275.13139522348

>  <r_lp_tautomer_probability> (1)
1

>  <r_epik_Ionization_Penalty> (1)
  0.0000

>  <r_epik_Ionization_Penalty_Charging> (1)
  0.0000

>  <r_epik_Ionization_Penalty_Neutral> (1)
  0.0000

>  <r_epik_State_Penalty> (1)
  0.0000

>  <r_epik_Charging_Adjusted_Penalty> (1)
0

>  <i_epik_Tot_Q> (1)
0

>  <i_epik_Tot_abs_Q> (1)
0

>  <s_lp_Force_Field> (1)
S-OPLS

>  <r_lp_Energy> (1)
6.56608

>  <b_lp_Chiralities_Consistent> (1)
1

$$$$
