17167_Trans-2-heptenal
                    3D
 Schrodinger Suite 2021-3.
 20 19  0  0  1  0            999 V2000
   -2.0963    1.5792   -0.1736 C   0  0  0  0  0  0
   -0.5776    1.4723   -0.0107 C   0  0  0  0  0  0
   -0.0860    0.0210    0.0292 C   0  0  0  0  0  0
    1.4428   -0.0865    0.2014 C   0  0  0  0  0  0
    1.9185   -1.5054    0.1876 C   0  0  0  0  0  0
    2.5402   -2.1379    1.1943 C   0  0  0  0  0  0
    2.9444   -3.5463    1.0821 C   0  0  0  0  0  0
    3.5087   -4.1714    1.9612 O   0  0  0  0  0  0
   -2.4233    2.6234   -0.2006 H   0  0  0  0  0  0
   -2.6174    1.0873    0.6555 H   0  0  0  0  0  0
   -2.4280    1.1011   -1.1023 H   0  0  0  0  0  0
   -0.0787    1.9998   -0.8349 H   0  0  0  0  0  0
   -0.2679    1.9839    0.9105 H   0  0  0  0  0  0
   -0.5778   -0.5145    0.8515 H   0  0  0  0  0  0
   -0.3859   -0.4931   -0.8945 H   0  0  0  0  0  0
    1.9261    0.4605   -0.6216 H   0  0  0  0  0  0
    1.7484    0.4056    1.1323 H   0  0  0  0  0  0
    1.7139   -2.0679   -0.7265 H   0  0  0  0  0  0
    2.7700   -1.6386    2.1332 H   0  0  0  0  0  0
    2.6928   -4.0262    0.1070 H   0  0  0  0  0  0
  1  2  1  0  0  0
  1  9  1  0  0  0
  1 10  1  0  0  0
  1 11  1  0  0  0
  2  3  1  0  0  0
  2 12  1  0  0  0
  2 13  1  0  0  0
  3  4  1  0  0  0
  3 14  1  0  0  0
  3 15  1  0  0  0
  4  5  1  0  0  0
  4 16  1  0  0  0
  4 17  1  0  0  0
  5  6  2  0  0  0
  5 18  1  0  0  0
  6  7  1  0  0  0
  6 19  1  0  0  0
  7  8  2  0  0  0
  7 20  1  0  0  0
M  END
>  <i_m_Spin_multiplicity> (1)
1

>  <s_j_Task> (1)
Single Point

>  <s_j_QM_Method> (1)
DFT(b3lyp-d3)

>  <s_j_QM_Basis> (1)
cc-pvtz(-f)

>  <i_j_Number_of_canonical_orbitals> (1)
290

>  <i_j_Geometry_convergence_category> (1)
3

>  <r_j_Gas_Phase_Energy> (1)
-349.311089147723

>  <r_j_Final_Energy> (1)
-349.311089147723

>  <r_j_HOMO> (1)
-0.278793003488963

>  <r_j_LUMO> (1)
-0.081506724795393

>  <r_j_Polarizability> (1)
92.5421689708761

>  <r_j_QM_Dipole_(debye)> (1)
4.3265330837289

>  <r_j_QM_Dipole_X_(debye)> (1)
-2.11420856260405

>  <r_j_QM_Dipole_Y_(debye)> (1)
3.07593397110399

>  <r_j_QM_Dipole_Z_(debye)> (1)
-2.18806784260014

>  <r_j_Lowest_Frequency_(cm-1)> (1)
72.5458197274209

>  <r_j_Highest_Frequency_(cm-1)> (1)
3121.96736041603

>  <r_j_2nd_Lowest_Frequency_(cm-1)> (1)
128.025713369187

>  <i_j_Num_Negative_Frequencies> (1)
0

>  <r_j_Zero_Point_Energy_(kcal/mol)> (1)
109.753047339157

>  <r_j_Entropy_(cal/mol/K)_298.15K_1.00E+00atm> (1)
92.4868270176306

>  <r_j_Enthalpy_(kcal/mol)_298.15K_1.00E+00atm> (1)
6.31697776460059

>  <r_j_Free_Energy_(kcal/mol)_298.15K_1.00E+00atm> (1)
-21.257969710706

>  <r_j_Internal_Energy_(kcal/mol)_298.15K_1.00E+00atm> (1)
5.72449217577331

>  <r_j_Heat_Capacity_(cal/mol/K)_298.15K_1.00E+00atm> (1)
32.8720986785792

>  <r_j_ln(Q)_298.15K_1.00E+00atm> (1)
35.879302571363

>  <r_j_Total_Internal_Energy_(au)_298.15K_1.00E+00atm> (1)
-349.127063973546

>  <r_j_Total_Enthalpy_(au)_298.15K_1.00E+00atm> (1)
-349.126119787653

>  <r_j_Total_Free_Energy_(au)_298.15K_1.00E+00atm> (1)
-349.170063263877

>  <r_lp_tautomer_probability> (1)
1

>  <r_epik_Ionization_Penalty> (1)
  0.0000

>  <r_epik_Ionization_Penalty_Charging> (1)
  0.0000

>  <r_epik_Ionization_Penalty_Neutral> (1)
  0.0000

>  <r_epik_State_Penalty> (1)
  0.0000

>  <r_epik_Charging_Adjusted_Penalty> (1)
0

>  <i_epik_Tot_Q> (1)
0

>  <i_epik_Tot_abs_Q> (1)
0

>  <s_lp_Force_Field> (1)
S-OPLS

>  <r_lp_Energy> (1)
-1.368027

>  <b_lp_Chiralities_Consistent> (1)
1

$$$$
