17198_1-(4-hydroxy-3,5-dimethoxyphenyl)-ethanone
                    3D
 Schrodinger Suite 2021-3.
 26 26  0  0  1  0            999 V2000
   -0.9069   -1.2709    0.0001 C   0  0  0  0  0  0
   -0.0646    0.0003    0.0000 C   0  0  0  0  0  0
   -0.6452    1.0792   -0.0002 O   0  0  0  0  0  0
    1.4257   -0.0632   -0.0001 C   0  0  0  0  0  0
    2.1466   -1.2672    0.0000 C   0  0  0  0  0  0
    3.5374   -1.2272    0.0000 C   0  0  0  0  0  0
    4.2309   -0.0058   -0.0001 C   0  0  0  0  0  0
    3.5062    1.2015   -0.0001 C   0  0  0  0  0  0
    2.1151    1.1611   -0.0001 C   0  0  0  0  0  0
    4.2648    2.3311    0.0000 O   0  0  0  0  0  0
    3.5879    3.5802    0.0002 C   0  0  0  0  0  0
    5.5852    0.0267    0.0000 O   0  0  0  0  0  0
    4.3737   -2.3205    0.0000 O   0  0  0  0  0  0
    3.7873   -3.6138    0.0001 C   0  0  0  0  0  0
   -0.3509   -2.2082    0.0003 H   0  0  0  0  0  0
   -1.5569   -1.2455   -0.8795 H   0  0  0  0  0  0
   -1.5569   -1.2452    0.8797 H   0  0  0  0  0  0
    1.6365   -2.2198    0.0000 H   0  0  0  0  0  0
    1.5214    2.0658   -0.0001 H   0  0  0  0  0  0
    4.3688    4.3420    0.0004 H   0  0  0  0  0  0
    2.9616    3.7013    0.8936 H   0  0  0  0  0  0
    2.9616    3.7017   -0.8931 H   0  0  0  0  0  0
    5.8870   -0.8955    0.0000 H   0  0  0  0  0  0
    4.6154   -4.3237    0.0002 H   0  0  0  0  0  0
    3.1717   -3.7742   -0.8943 H   0  0  0  0  0  0
    3.1718   -3.7740    0.8947 H   0  0  0  0  0  0
  1  2  1  0  0  0
  1 15  1  0  0  0
  1 16  1  0  0  0
  1 17  1  0  0  0
  2  3  2  0  0  0
  2  4  1  0  0  0
  4  9  1  0  0  0
  4  5  2  0  0  0
  5  6  1  0  0  0
  5 18  1  0  0  0
  6  7  2  0  0  0
  6 13  1  0  0  0
  7  8  1  0  0  0
  7 12  1  0  0  0
  8  9  2  0  0  0
  8 10  1  0  0  0
  9 19  1  0  0  0
 10 11  1  0  0  0
 11 20  1  0  0  0
 11 21  1  0  0  0
 11 22  1  0  0  0
 12 23  1  0  0  0
 13 14  1  0  0  0
 14 24  1  0  0  0
 14 25  1  0  0  0
 14 26  1  0  0  0
M  END
>  <i_m_Spin_multiplicity> (1)
1

>  <s_j_Task> (1)
Single Point

>  <s_j_QM_Method> (1)
DFT(b3lyp-d3)

>  <s_j_QM_Basis> (1)
cc-pvtz(-f)

>  <i_j_Number_of_canonical_orbitals> (1)
423

>  <i_j_Geometry_convergence_category> (1)
0

>  <r_j_Gas_Phase_Energy> (1)
-689.414296887032

>  <r_j_Final_Energy> (1)
-689.414296887032

>  <r_j_HOMO> (1)
-0.218680551869267

>  <r_j_LUMO> (1)
-0.0566645336179705

>  <r_j_Polarizability> (1)
138.380364716402

>  <r_j_QM_Dipole_(debye)> (1)
3.78634624153658

>  <r_j_QM_Dipole_X_(debye)> (1)
1.15755477076468

>  <r_j_QM_Dipole_Y_(debye)> (1)
-3.60506371115466

>  <r_j_QM_Dipole_Z_(debye)> (1)
0.000672304968737019

>  <r_j_Lowest_Frequency_(cm-1)> (1)
70.6147261004254

>  <r_j_Highest_Frequency_(cm-1)> (1)
3709.07785487053

>  <r_j_2nd_Lowest_Frequency_(cm-1)> (1)
76.2295881286703

>  <i_j_Num_Negative_Frequencies> (1)
0

>  <r_j_Zero_Point_Energy_(kcal/mol)> (1)
129.802721665039

>  <r_j_Entropy_(cal/mol/K)_298.15K_1.00E+00atm> (1)
114.021312021311

>  <r_j_Enthalpy_(kcal/mol)_298.15K_1.00E+00atm> (1)
9.15429511852386

>  <r_j_Free_Energy_(kcal/mol)_298.15K_1.00E+00atm> (1)
-24.84115906063

>  <r_j_Internal_Energy_(kcal/mol)_298.15K_1.00E+00atm> (1)
8.56180952969659

>  <r_j_Heat_Capacity_(cal/mol/K)_298.15K_1.00E+00atm> (1)
51.5944875647627

>  <r_j_ln(Q)_298.15K_1.00E+00atm> (1)
41.9270266299622

>  <r_j_Total_Internal_Energy_(au)_298.15K_1.00E+00atm> (1)
-689.193798969774

>  <r_j_Total_Enthalpy_(au)_298.15K_1.00E+00atm> (1)
-689.192854783882

>  <r_j_Total_Free_Energy_(au)_298.15K_1.00E+00atm> (1)
-689.247029988886

>  <r_lp_tautomer_probability> (1)
0.99995

>  <r_epik_Ionization_Penalty> (1)
  0.0430

>  <r_epik_Ionization_Penalty_Charging> (1)
  0.0000

>  <r_epik_Ionization_Penalty_Neutral> (1)
  0.0430

>  <r_epik_State_Penalty> (1)
  0.0364

>  <r_epik_Charging_Adjusted_Penalty> (1)
0.0363694

>  <i_epik_Tot_Q> (1)
0

>  <i_epik_Tot_abs_Q> (1)
0

>  <s_lp_Force_Field> (1)
S-OPLS

>  <r_lp_Energy> (1)
19.8716

>  <b_lp_Chiralities_Consistent> (1)
1

$$$$
