17253_Benz(a)anthracene-7,12-dione
                    3D
 Schrodinger Suite 2021-3.
 30 33  0  0  1  0            999 V2000
    0.0433    1.3088    0.9769 C   0  0  0  0  0  0
    1.1257    2.1040    0.5412 C   0  0  0  0  0  0
    2.2886    1.5338    0.0714 C   0  0  0  0  0  0
    2.4420    0.1179    0.0086 C   0  0  0  0  0  0
    1.3327   -0.6831    0.4554 C   0  0  0  0  0  0
    0.1504   -0.0601    0.9327 C   0  0  0  0  0  0
    1.4209   -2.0975    0.4179 C   0  0  0  0  0  0
    2.5513   -2.7184   -0.0386 C   0  0  0  0  0  0
    3.6568   -1.9558   -0.4823 C   0  0  0  0  0  0
    3.6277   -0.5556   -0.4694 C   0  0  0  0  0  0
    4.8343    0.1901   -0.9538 C   0  0  0  0  0  0
    4.9006    1.4165   -0.9841 O   0  0  0  0  0  0
    6.0195   -0.5978   -1.4235 C   0  0  0  0  0  0
    7.1509    0.0947   -1.8711 C   0  0  0  0  0  0
    8.2688   -0.6058   -2.3152 C   0  0  0  0  0  0
    8.2706   -2.0054   -2.3187 C   0  0  0  0  0  0
    7.1501   -2.7010   -1.8760 C   0  0  0  0  0  0
    6.0253   -1.9997   -1.4286 C   0  0  0  0  0  0
    4.8361   -2.7454   -0.9584 C   0  0  0  0  0  0
    4.8148   -3.9727   -0.9567 O   0  0  0  0  0  0
   -0.8649    1.7778    1.3434 H   0  0  0  0  0  0
    1.0423    3.1864    0.5752 H   0  0  0  0  0  0
    3.1031    2.1599   -0.2569 H   0  0  0  0  0  0
   -0.6701   -0.6917    1.2624 H   0  0  0  0  0  0
    0.5714   -2.6832    0.7590 H   0  0  0  0  0  0
    2.6349   -3.7981   -0.0748 H   0  0  0  0  0  0
    7.1305    1.1787   -1.8614 H   0  0  0  0  0  0
    9.1430   -0.0619   -2.6606 H   0  0  0  0  0  0
    9.1447   -2.5477   -2.6661 H   0  0  0  0  0  0
    7.1186   -3.7852   -1.8657 H   0  0  0  0  0  0
  1  6  1  0  0  0
  1  2  2  0  0  0
  1 21  1  0  0  0
  2  3  1  0  0  0
  2 22  1  0  0  0
  3  4  2  0  0  0
  3 23  1  0  0  0
  4 10  1  0  0  0
  4  5  1  0  0  0
  5  6  2  0  0  0
  5  7  1  0  0  0
  6 24  1  0  0  0
  7  8  2  0  0  0
  7 25  1  0  0  0
  8  9  1  0  0  0
  8 26  1  0  0  0
  9 19  1  0  0  0
  9 10  2  0  0  0
 10 11  1  0  0  0
 11 12  2  0  0  0
 11 13  1  0  0  0
 13 18  1  0  0  0
 13 14  2  0  0  0
 14 15  1  0  0  0
 14 27  1  0  0  0
 15 16  2  0  0  0
 15 28  1  0  0  0
 16 17  1  0  0  0
 16 29  1  0  0  0
 17 18  2  0  0  0
 17 30  1  0  0  0
 18 19  1  0  0  0
 19 20  2  0  0  0
M  END
>  <i_m_Spin_multiplicity> (1)
1

>  <s_j_Task> (1)
Single Point

>  <s_j_QM_Method> (1)
DFT(b3lyp-d3)

>  <s_j_QM_Basis> (1)
cc-pvtz(-f)

>  <i_j_Number_of_canonical_orbitals> (1)
533

>  <i_j_Geometry_convergence_category> (1)
3

>  <r_j_Gas_Phase_Energy> (1)
-842.695188541011

>  <r_j_Final_Energy> (1)
-842.695188541011

>  <r_j_HOMO> (1)
-0.241374334205248

>  <r_j_LUMO> (1)
-0.118820986280872

>  <r_j_Polarizability> (1)
219.904529095166

>  <r_j_QM_Dipole_(debye)> (1)
0.696663182177652

>  <r_j_QM_Dipole_X_(debye)> (1)
-0.371853315747071

>  <r_j_QM_Dipole_Y_(debye)> (1)
0.561575511933703

>  <r_j_QM_Dipole_Z_(debye)> (1)
0.17803832555436

>  <r_j_Lowest_Frequency_(cm-1)> (1)
50.3841566725758

>  <r_j_Highest_Frequency_(cm-1)> (1)
3220.81957135393

>  <r_j_2nd_Lowest_Frequency_(cm-1)> (1)
76.4956501403204

>  <i_j_Num_Negative_Frequencies> (1)
0

>  <r_j_Zero_Point_Energy_(kcal/mol)> (1)
141.9776776819

>  <r_j_Entropy_(cal/mol/K)_298.15K_1.00E+00atm> (1)
112.991014568573

>  <r_j_Enthalpy_(kcal/mol)_298.15K_1.00E+00atm> (1)
8.95608888262475

>  <r_j_Free_Energy_(kcal/mol)_298.15K_1.00E+00atm> (1)
-24.7321821109953

>  <r_j_Internal_Energy_(kcal/mol)_298.15K_1.00E+00atm> (1)
8.36360329379747

>  <r_j_Heat_Capacity_(cal/mol/K)_298.15K_1.00E+00atm> (1)
56.4186977638857

>  <r_j_ln(Q)_298.15K_1.00E+00atm> (1)
41.7430948150966

>  <r_j_Total_Internal_Energy_(au)_298.15K_1.00E+00atm> (1)
-842.45560445796

>  <r_j_Total_Enthalpy_(au)_298.15K_1.00E+00atm> (1)
-842.454660272068

>  <r_j_Total_Free_Energy_(au)_298.15K_1.00E+00atm> (1)
-842.508345949503

>  <r_lp_tautomer_probability> (1)
1

>  <r_epik_Ionization_Penalty> (1)
  0.0000

>  <r_epik_Ionization_Penalty_Charging> (1)
  0.0000

>  <r_epik_Ionization_Penalty_Neutral> (1)
  0.0000

>  <r_epik_State_Penalty> (1)
  0.0000

>  <r_epik_Charging_Adjusted_Penalty> (1)
0

>  <i_epik_Tot_Q> (1)
0

>  <i_epik_Tot_abs_Q> (1)
0

>  <s_lp_Force_Field> (1)
S-OPLS

>  <r_lp_Energy> (1)
37.7111

>  <b_lp_Chiralities_Consistent> (1)
1

$$$$
