17262_Guaiacylacetone
                    3D
 Schrodinger Suite 2021-3.
 25 25  0  0  1  0            999 V2000
   -0.5419    2.4015    0.7977 C   0  0  0  0  0  0
   -0.5965    1.3220   -0.2664 C   0  0  0  0  0  0
   -1.0177    1.5328   -1.3875 O   0  0  0  0  0  0
   -0.0427   -0.0508    0.1259 C   0  0  0  0  0  0
    1.4755   -0.0061    0.1148 C   0  0  0  0  0  0
    2.2095   -0.1204    1.3060 C   0  0  0  0  0  0
    3.6024   -0.0374    1.3083 C   0  0  0  0  0  0
    4.2840    0.1708    0.0883 C   0  0  0  0  0  0
    3.5524    0.2895   -1.0895 C   0  0  0  0  0  0
    2.1581    0.2060   -1.0817 C   0  0  0  0  0  0
    5.6464    0.2442    0.1420 O   0  0  0  0  0  0
    4.3942   -0.1441    2.4122 O   0  0  0  0  0  0
    3.7641   -0.3509    3.6653 C   0  0  0  0  0  0
    0.4584    2.4453    1.2412 H   0  0  0  0  0  0
   -1.2447    2.1607    1.6044 H   0  0  0  0  0  0
   -0.8048    3.3670    0.3635 H   0  0  0  0  0  0
   -0.4052   -0.3319    1.1211 H   0  0  0  0  0  0
   -0.4198   -0.7754   -0.6013 H   0  0  0  0  0  0
    1.6776   -0.2814    2.2366 H   0  0  0  0  0  0
    4.0823    0.4533   -2.0256 H   0  0  0  0  0  0
    1.6014    0.3174   -2.0072 H   0  0  0  0  0  0
    5.9824    0.3865   -0.7524 H   0  0  0  0  0  0
    4.5684   -0.4038    4.4006 H   0  0  0  0  0  0
    3.1950   -1.2903    3.6848 H   0  0  0  0  0  0
    3.0921    0.4786    3.9249 H   0  0  0  0  0  0
  1  2  1  0  0  0
  1 14  1  0  0  0
  1 15  1  0  0  0
  1 16  1  0  0  0
  2  3  2  0  0  0
  2  4  1  0  0  0
  4  5  1  0  0  0
  4 17  1  0  0  0
  4 18  1  0  0  0
  5 10  1  0  0  0
  5  6  2  0  0  0
  6  7  1  0  0  0
  6 19  1  0  0  0
  7  8  2  0  0  0
  7 12  1  0  0  0
  8  9  1  0  0  0
  8 11  1  0  0  0
  9 10  2  0  0  0
  9 20  1  0  0  0
 10 21  1  0  0  0
 11 22  1  0  0  0
 12 13  1  0  0  0
 13 23  1  0  0  0
 13 24  1  0  0  0
 13 25  1  0  0  0
M  END
>  <i_m_Spin_multiplicity> (1)
1

>  <s_j_Task> (1)
Single Point

>  <s_j_QM_Method> (1)
DFT(b3lyp-d3)

>  <s_j_QM_Basis> (1)
cc-pvtz(-f)

>  <i_j_Number_of_canonical_orbitals> (1)
400

>  <i_j_Geometry_convergence_category> (1)
0

>  <r_j_Gas_Phase_Energy> (1)
-614.171942820361

>  <r_j_Final_Energy> (1)
-614.171942820361

>  <r_j_HOMO> (1)
-0.214344450878561

>  <r_j_LUMO> (1)
-0.0268123991936858

>  <r_j_Polarizability> (1)
127.111209349652

>  <r_j_QM_Dipole_(debye)> (1)
2.52138307505037

>  <r_j_QM_Dipole_X_(debye)> (1)
0.843928384249428

>  <r_j_QM_Dipole_Y_(debye)> (1)
-0.503891996827036

>  <r_j_QM_Dipole_Z_(debye)> (1)
2.32190661934158

>  <r_j_Lowest_Frequency_(cm-1)> (1)
56.93798245875

>  <r_j_Highest_Frequency_(cm-1)> (1)
3772.79552900013

>  <r_j_2nd_Lowest_Frequency_(cm-1)> (1)
77.6429464030527

>  <i_j_Num_Negative_Frequencies> (1)
0

>  <r_j_Zero_Point_Energy_(kcal/mol)> (1)
126.851571460786

>  <r_j_Entropy_(cal/mol/K)_298.15K_1.00E+00atm> (1)
108.179069608912

>  <r_j_Enthalpy_(kcal/mol)_298.15K_1.00E+00atm> (1)
8.35349349729686

>  <r_j_Free_Energy_(kcal/mol)_298.15K_1.00E+00atm> (1)
-23.9000961066001

>  <r_j_Internal_Energy_(kcal/mol)_298.15K_1.00E+00atm> (1)
7.76100790846959

>  <r_j_Heat_Capacity_(cal/mol/K)_298.15K_1.00E+00atm> (1)
47.6756292830561

>  <r_j_ln(Q)_298.15K_1.00E+00atm> (1)
40.3386960920119

>  <r_j_Total_Internal_Energy_(au)_298.15K_1.00E+00atm> (1)
-613.957424018964

>  <r_j_Total_Enthalpy_(au)_298.15K_1.00E+00atm> (1)
-613.956479833072

>  <r_j_Total_Free_Energy_(au)_298.15K_1.00E+00atm> (1)
-614.007879200167

>  <r_lp_tautomer_probability> (1)
1

>  <r_epik_Ionization_Penalty> (1)
  0.0005

>  <r_epik_Ionization_Penalty_Charging> (1)
  0.0000

>  <r_epik_Ionization_Penalty_Neutral> (1)
  0.0005

>  <r_epik_State_Penalty> (1)
  0.0003

>  <r_epik_Charging_Adjusted_Penalty> (1)
0.000319694

>  <i_epik_Tot_Q> (1)
0

>  <i_epik_Tot_abs_Q> (1)
0

>  <s_lp_Force_Field> (1)
S-OPLS

>  <r_lp_Energy> (1)
19.6084

>  <b_lp_Chiralities_Consistent> (1)
1

$$$$
