17291_3-Methoxy-1-Butanol
                    3D
 Schrodinger Suite 2021-3.
 19 18  0  0  1  0            999 V2000
   -0.4591   -0.8189    1.3413 C   0  0  0  0  0  0
   -0.0111   -0.0314    0.1075 C   0  0  0  0  0  0
    1.5104    0.0150   -0.0165 C   0  0  0  0  0  0
    1.9872    0.7594   -1.2565 C   0  0  0  0  0  0
    3.4099    0.6675   -1.2890 O   0  0  0  0  0  0
   -0.4559    1.3277    0.1583 O   0  0  0  0  0  0
   -1.8301    1.5142   -0.1108 C   0  0  0  0  0  0
   -0.0881   -1.8478    1.2955 H   0  0  0  0  0  0
   -1.5491   -0.8616    1.4207 H   0  0  0  0  0  0
   -0.0663   -0.3467    2.2473 H   0  0  0  0  0  0
   -0.4308   -0.5091   -0.7969 H   0  0  0  0  0  0
    1.9302    0.4993    0.8727 H   0  0  0  0  0  0
    1.9032   -1.0079   -0.0451 H   0  0  0  0  0  0
    1.5360    0.3052   -2.1563 H   0  0  0  0  0  0
    1.6437    1.8016   -1.2076 H   0  0  0  0  0  0
    3.7260    1.2110   -2.0212 H   0  0  0  0  0  0
   -2.0062    2.5927   -0.1414 H   0  0  0  0  0  0
   -2.4803    1.0803    0.6631 H   0  0  0  0  0  0
   -2.1191    1.0821   -1.0827 H   0  0  0  0  0  0
  1  2  1  0  0  0
  1  8  1  0  0  0
  1  9  1  0  0  0
  1 10  1  0  0  0
  2  3  1  0  0  0
  2  6  1  0  0  0
  2 11  1  0  0  0
  3  4  1  0  0  0
  3 12  1  0  0  0
  3 13  1  0  0  0
  4  5  1  0  0  0
  4 14  1  0  0  0
  4 15  1  0  0  0
  5 16  1  0  0  0
  6  7  1  0  0  0
  7 17  1  0  0  0
  7 18  1  0  0  0
  7 19  1  0  0  0
M  END
>  <i_m_Spin_multiplicity> (1)
1

>  <s_j_Task> (1)
Single Point

>  <s_j_QM_Method> (1)
DFT(b3lyp-d3)

>  <s_j_QM_Basis> (1)
cc-pvtz(-f)

>  <i_j_Number_of_canonical_orbitals> (1)
268

>  <i_j_Geometry_convergence_category> (1)
0

>  <r_j_Gas_Phase_Energy> (1)
-348.327224032344

>  <r_j_Final_Energy> (1)
-348.327224032344

>  <r_j_HOMO> (1)
-0.253916129028957

>  <r_j_LUMO> (1)
0.0308906352929371

>  <r_j_Polarizability> (1)
71.0795231771639

>  <r_j_QM_Dipole_(debye)> (1)
1.90236917800144

>  <r_j_QM_Dipole_X_(debye)> (1)
-1.57031387866056

>  <r_j_QM_Dipole_Y_(debye)> (1)
-0.035665059324834

>  <r_j_QM_Dipole_Z_(debye)> (1)
-1.07324312969582

>  <r_j_Lowest_Frequency_(cm-1)> (1)
110.110560692421

>  <r_j_Highest_Frequency_(cm-1)> (1)
3774.86254425151

>  <r_j_2nd_Lowest_Frequency_(cm-1)> (1)
113.040395706305

>  <i_j_Num_Negative_Frequencies> (1)
0

>  <r_j_Zero_Point_Energy_(kcal/mol)> (1)
106.275000550981

>  <r_j_Entropy_(cal/mol/K)_298.15K_1.00E+00atm> (1)
89.5385822570196

>  <r_j_Enthalpy_(kcal/mol)_298.15K_1.00E+00atm> (1)
6.05645905886847

>  <r_j_Free_Energy_(kcal/mol)_298.15K_1.00E+00atm> (1)
-20.6394692410619

>  <r_j_Internal_Energy_(kcal/mol)_298.15K_1.00E+00atm> (1)
5.46397347004119

>  <r_j_Heat_Capacity_(cal/mol/K)_298.15K_1.00E+00atm> (1)
31.3045952442794

>  <r_j_ln(Q)_298.15K_1.00E+00atm> (1)
34.8353945315603

>  <r_j_Total_Internal_Energy_(au)_298.15K_1.00E+00atm> (1)
-348.14915664155

>  <r_j_Total_Enthalpy_(au)_298.15K_1.00E+00atm> (1)
-348.148212455658

>  <r_j_Total_Free_Energy_(au)_298.15K_1.00E+00atm> (1)
-348.190755125651

>  <r_lp_tautomer_probability> (1)
1

>  <r_epik_Ionization_Penalty> (1)
  0.0000

>  <r_epik_Ionization_Penalty_Charging> (1)
  0.0000

>  <r_epik_Ionization_Penalty_Neutral> (1)
  0.0000

>  <r_epik_State_Penalty> (1)
  0.0000

>  <r_epik_Charging_Adjusted_Penalty> (1)
0

>  <i_epik_Tot_Q> (1)
0

>  <i_epik_Tot_abs_Q> (1)
0

>  <s_lp_Force_Field> (1)
S-OPLS

>  <r_lp_Energy> (1)
1.203614

>  <b_lp_Chiralities_Consistent> (1)
1

$$$$
