17317_Silane, trimethoxy[3-(oxiranylmethoxy)propyl]-
                    3D
 Schrodinger Suite 2021-3.
 35 35  0  0  1  0            999 V2000
   -1.1790    2.0954    1.2908 C   0  0  0  0  0  0
   -0.7310    1.4318    0.1162 O   0  0  0  0  0  0
   -0.0684   -0.0776    0.0451 Si  0  0  0  0  0  0
    1.7940   -0.0578    0.0425 C   0  0  0  0  0  0
    2.3838    0.7275    1.2287 C   0  0  0  0  0  0
    3.9072    0.7422    1.2294 C   0  0  0  0  0  0
    4.3471    1.3752    0.0389 O   0  0  0  0  0  0
    5.7531    1.4144   -0.0924 C   0  0  0  0  0  0
    6.0879    2.0918   -1.3928 C   0  0  0  0  0  0
    7.3632    1.8352   -2.0743 C   0  0  0  0  0  0
    6.1433    1.2613   -2.5597 O   0  0  0  0  0  0
   -0.6623   -0.8663    1.3857 O   0  0  0  0  0  0
   -0.3790   -2.2329    1.6482 C   0  0  0  0  0  0
   -0.5545   -0.8064   -1.3519 O   0  0  0  0  0  0
   -1.9242   -0.8727   -1.7392 C   0  0  0  0  0  0
   -1.8801    2.8813    0.9931 H   0  0  0  0  0  0
   -0.3398    2.5649    1.8210 H   0  0  0  0  0  0
   -1.6835    1.4067    1.9769 H   0  0  0  0  0  0
    2.1643   -1.0924    0.0569 H   0  0  0  0  0  0
    2.1528    0.3776   -0.8958 H   0  0  0  0  0  0
    2.0302    1.7652    1.1990 H   0  0  0  0  0  0
    2.0431    0.3035    2.1820 H   0  0  0  0  0  0
    4.2902    1.2813    2.1137 H   0  0  0  0  0  0
    4.2978   -0.2896    1.2802 H   0  0  0  0  0  0
    6.2081    1.9754    0.7443 H   0  0  0  0  0  0
    6.1858    0.4002   -0.0913 H   0  0  0  0  0  0
    5.5921    3.0524   -1.5433 H   0  0  0  0  0  0
    7.8064    2.6107   -2.6994 H   0  0  0  0  0  0
    8.0743    1.1293   -1.6420 H   0  0  0  0  0  0
   -0.9463   -2.5396    2.5319 H   0  0  0  0  0  0
    0.6889   -2.3935    1.8533 H   0  0  0  0  0  0
   -0.6685   -2.8777    0.8078 H   0  0  0  0  0  0
   -1.9720   -1.2869   -2.7500 H   0  0  0  0  0  0
   -2.3852    0.1219   -1.7401 H   0  0  0  0  0  0
   -2.4982   -1.5236   -1.0665 H   0  0  0  0  0  0
  1  2  1  0  0  0
  1 16  1  0  0  0
  1 17  1  0  0  0
  1 18  1  0  0  0
  2  3  1  0  0  0
  3  4  1  0  0  0
  3 12  1  0  0  0
  3 14  1  0  0  0
  4  5  1  0  0  0
  4 19  1  0  0  0
  4 20  1  0  0  0
  5  6  1  0  0  0
  5 21  1  0  0  0
  5 22  1  0  0  0
  6  7  1  0  0  0
  6 23  1  0  0  0
  6 24  1  0  0  0
  7  8  1  0  0  0
  8  9  1  0  0  0
  8 25  1  0  0  0
  8 26  1  0  0  0
  9 11  1  0  0  0
  9 10  1  0  0  0
  9 27  1  0  0  0
 10 11  1  0  0  0
 10 28  1  0  0  0
 10 29  1  0  0  0
 12 13  1  0  0  0
 13 30  1  0  0  0
 13 31  1  0  0  0
 13 32  1  0  0  0
 14 15  1  0  0  0
 15 33  1  0  0  0
 15 34  1  0  0  0
 15 35  1  0  0  0
M  END
>  <i_m_Spin_multiplicity> (1)
1

>  <s_j_Task> (1)
Single Point

>  <s_j_QM_Method> (1)
DFT(b3lyp-d3)

>  <s_j_QM_Basis> (1)
cc-pvtz(-f)

>  <i_j_Number_of_canonical_orbitals> (1)
528

>  <i_j_Geometry_convergence_category> (1)
3

>  <r_j_Gas_Phase_Energy> (1)
-1020.99160602752

>  <r_j_Final_Energy> (1)
-1020.99160602752

>  <r_j_HOMO> (1)
-0.256549372460971

>  <r_j_LUMO> (1)
0.0133771984216522

>  <r_j_Polarizability> (1)
147.17686277036

>  <r_j_QM_Dipole_(debye)> (1)
3.13981231858503

>  <r_j_QM_Dipole_X_(debye)> (1)
1.22625918089226

>  <r_j_QM_Dipole_Y_(debye)> (1)
-0.0462186014036167

>  <r_j_QM_Dipole_Z_(debye)> (1)
2.89008194660636

>  <r_j_Lowest_Frequency_(cm-1)> (1)
34.5627424063327

>  <r_j_Highest_Frequency_(cm-1)> (1)
3109.82120445776

>  <r_j_2nd_Lowest_Frequency_(cm-1)> (1)
37.8389080428573

>  <i_j_Num_Negative_Frequencies> (1)
0

>  <r_j_Zero_Point_Energy_(kcal/mol)> (1)
184.772052113244

>  <r_j_Entropy_(cal/mol/K)_298.15K_1.00E+00atm> (1)
139.206203664846

>  <r_j_Enthalpy_(kcal/mol)_298.15K_1.00E+00atm> (1)
12.4020804483282

>  <r_j_Free_Energy_(kcal/mol)_298.15K_1.00E+00atm> (1)
-29.1022491743456

>  <r_j_Internal_Energy_(kcal/mol)_298.15K_1.00E+00atm> (1)
11.8095948595009

>  <r_j_Heat_Capacity_(cal/mol/K)_298.15K_1.00E+00atm> (1)
66.765739070288

>  <r_j_ln(Q)_298.15K_1.00E+00atm> (1)
49.1189148278672

>  <r_j_Total_Internal_Energy_(au)_298.15K_1.00E+00atm> (1)
-1020.67833323026

>  <r_j_Total_Enthalpy_(au)_298.15K_1.00E+00atm> (1)
-1020.67738904437

>  <r_j_Total_Free_Energy_(au)_298.15K_1.00E+00atm> (1)
-1020.74353040415

>  <r_lp_tautomer_probability> (1)
1

>  <r_epik_Ionization_Penalty> (1)
  0.0000

>  <r_epik_Ionization_Penalty_Charging> (1)
  0.0000

>  <r_epik_Ionization_Penalty_Neutral> (1)
  0.0000

>  <r_epik_State_Penalty> (1)
  0.0000

>  <r_epik_Charging_Adjusted_Penalty> (1)
0

>  <i_epik_Tot_Q> (1)
0

>  <i_epik_Tot_abs_Q> (1)
0

>  <s_lp_Force_Field> (1)
S-OPLS

>  <r_lp_Energy> (1)
4.068013

>  <b_lp_Chiralities_Consistent> (1)
1

$$$$
