17321_2-methylphenanthrene
                    3D
 Schrodinger Suite 2021-3.
 27 29  0  0  1  0            999 V2000
   -0.0315    0.0115   -0.0001 C   0  0  0  0  0  0
    1.4774    0.0205   -0.0001 C   0  0  0  0  0  0
    2.2028    1.1975    0.0001 C   0  0  0  0  0  0
    3.6170    1.2056    0.0001 C   0  0  0  0  0  0
    4.3317   -0.0258    0.0001 C   0  0  0  0  0  0
    3.5730   -1.2200   -0.0001 C   0  0  0  0  0  0
    2.1936   -1.1983   -0.0002 C   0  0  0  0  0  0
    5.7867   -0.0042    0.0001 C   0  0  0  0  0  0
    6.5776   -1.1775    0.0002 C   0  0  0  0  0  0
    7.9585   -1.1171    0.0001 C   0  0  0  0  0  0
    8.6174    0.1263   -0.0001 C   0  0  0  0  0  0
    7.8749    1.2894   -0.0002 C   0  0  0  0  0  0
    6.4611    1.2527    0.0000 C   0  0  0  0  0  0
    5.6985    2.4672    0.0000 C   0  0  0  0  0  0
    4.3393    2.4449    0.0001 C   0  0  0  0  0  0
   -0.4409    1.0253    0.0001 H   0  0  0  0  0  0
   -0.4228   -0.5106    0.8810 H   0  0  0  0  0  0
   -0.4228   -0.5103   -0.8813 H   0  0  0  0  0  0
    1.6816    2.1523    0.0003 H   0  0  0  0  0  0
    4.0759   -2.1806   -0.0001 H   0  0  0  0  0  0
    1.6435   -2.1363   -0.0003 H   0  0  0  0  0  0
    6.1003   -2.1512    0.0003 H   0  0  0  0  0  0
    8.5377   -2.0360    0.0002 H   0  0  0  0  0  0
    9.7026    0.1681   -0.0002 H   0  0  0  0  0  0
    8.3699    2.2573   -0.0003 H   0  0  0  0  0  0
    6.2345    3.4124   -0.0001 H   0  0  0  0  0  0
    3.7731    3.3721    0.0001 H   0  0  0  0  0  0
  1  2  1  0  0  0
  1 16  1  0  0  0
  1 17  1  0  0  0
  1 18  1  0  0  0
  2  7  1  0  0  0
  2  3  2  0  0  0
  3  4  1  0  0  0
  3 19  1  0  0  0
  4 15  1  0  0  0
  4  5  2  0  0  0
  5  6  1  0  0  0
  5  8  1  0  0  0
  6  7  2  0  0  0
  6 20  1  0  0  0
  7 21  1  0  0  0
  8 13  1  0  0  0
  8  9  2  0  0  0
  9 10  1  0  0  0
  9 22  1  0  0  0
 10 11  2  0  0  0
 10 23  1  0  0  0
 11 12  1  0  0  0
 11 24  1  0  0  0
 12 13  2  0  0  0
 12 25  1  0  0  0
 13 14  1  0  0  0
 14 15  2  0  0  0
 14 26  1  0  0  0
 15 27  1  0  0  0
M  END
>  <i_m_Spin_multiplicity> (1)
1

>  <s_j_Task> (1)
Single Point

>  <s_j_QM_Method> (1)
DFT(b3lyp-d3)

>  <s_j_QM_Basis> (1)
cc-pvtz(-f)

>  <i_j_Number_of_canonical_orbitals> (1)
439

>  <i_j_Geometry_convergence_category> (1)
0

>  <r_j_Gas_Phase_Energy> (1)
-579.049004194007

>  <r_j_Final_Energy> (1)
-579.049004194007

>  <r_j_HOMO> (1)
-0.216045953293682

>  <r_j_LUMO> (1)
-0.0446473616258699

>  <r_j_Polarizability> (1)
179.866883455177

>  <r_j_QM_Dipole_(debye)> (1)
0.545961631400641

>  <r_j_QM_Dipole_X_(debye)> (1)
-0.534777467104441

>  <r_j_QM_Dipole_Y_(debye)> (1)
-0.109941637227907

>  <r_j_QM_Dipole_Z_(debye)> (1)
6.5310788361461e-06

>  <r_j_Lowest_Frequency_(cm-1)> (1)
89.7527259608647

>  <r_j_Highest_Frequency_(cm-1)> (1)
3160.484741926

>  <r_j_2nd_Lowest_Frequency_(cm-1)> (1)
121.419227592523

>  <i_j_Num_Negative_Frequencies> (1)
0

>  <r_j_Zero_Point_Energy_(kcal/mol)> (1)
138.610919373934

>  <r_j_Entropy_(cal/mol/K)_298.15K_1.00E+00atm> (1)
100.792370691329

>  <r_j_Enthalpy_(kcal/mol)_298.15K_1.00E+00atm> (1)
7.38123163313553

>  <r_j_Free_Energy_(kcal/mol)_298.15K_1.00E+00atm> (1)
-22.6700136884842

>  <r_j_Internal_Energy_(kcal/mol)_298.15K_1.00E+00atm> (1)
6.78874604430826

>  <r_j_Heat_Capacity_(cal/mol/K)_298.15K_1.00E+00atm> (1)
45.9987499519418

>  <r_j_ln(Q)_298.15K_1.00E+00atm> (1)
38.2625571254074

>  <r_j_Total_Internal_Energy_(au)_298.15K_1.00E+00atm> (1)
-578.817295076664

>  <r_j_Total_Enthalpy_(au)_298.15K_1.00E+00atm> (1)
-578.816350890772

>  <r_j_Total_Free_Energy_(au)_298.15K_1.00E+00atm> (1)
-578.864240598829

>  <r_lp_tautomer_probability> (1)
1

>  <r_epik_Ionization_Penalty> (1)
  0.0000

>  <r_epik_Ionization_Penalty_Charging> (1)
  0.0000

>  <r_epik_Ionization_Penalty_Neutral> (1)
  0.0000

>  <r_epik_State_Penalty> (1)
  0.0000

>  <r_epik_Charging_Adjusted_Penalty> (1)
0

>  <i_epik_Tot_Q> (1)
0

>  <i_epik_Tot_abs_Q> (1)
0

>  <s_lp_Force_Field> (1)
S-OPLS

>  <r_lp_Energy> (1)
28.7047

>  <b_lp_Chiralities_Consistent> (1)
1

$$$$
