17347_7-methylbenz(a)anthracene
                    3D
 Schrodinger Suite 2021-3.
 33 36  0  0  1  0            999 V2000
   -0.0793   -0.0442   -0.0001 C   0  0  0  0  0  0
    1.4345    0.0162   -0.0001 C   0  0  0  0  0  0
    2.1450    1.2327   -0.0002 C   0  0  0  0  0  0
    1.4729    2.5117   -0.0001 C   0  0  0  0  0  0
    2.1501    3.6849    0.0000 C   0  0  0  0  0  0
    3.5868    3.7300    0.0001 C   0  0  0  0  0  0
    4.2672    4.9660    0.0003 C   0  0  0  0  0  0
    5.6486    5.0176    0.0003 C   0  0  0  0  0  0
    6.3811    3.8195    0.0000 C   0  0  0  0  0  0
    5.7289    2.5972   -0.0001 C   0  0  0  0  0  0
    4.3194    2.5121   -0.0001 C   0  0  0  0  0  0
    3.5939    1.2365   -0.0002 C   0  0  0  0  0  0
    4.2619    0.0193   -0.0002 C   0  0  0  0  0  0
    3.5787   -1.2075   -0.0001 C   0  0  0  0  0  0
    4.2889   -2.4430    0.0000 C   0  0  0  0  0  0
    3.6229   -3.6414    0.0002 C   0  0  0  0  0  0
    2.2042   -3.6592    0.0003 C   0  0  0  0  0  0
    1.4888   -2.4868    0.0002 C   0  0  0  0  0  0
    2.1431   -1.2163    0.0000 C   0  0  0  0  0  0
   -0.5560    0.9335   -0.0002 H   0  0  0  0  0  0
   -0.4475   -0.5815    0.8813 H   0  0  0  0  0  0
   -0.4475   -0.5818   -0.8813 H   0  0  0  0  0  0
    0.3911    2.5430   -0.0002 H   0  0  0  0  0  0
    1.6071    4.6261    0.0001 H   0  0  0  0  0  0
    3.6824    5.8824    0.0005 H   0  0  0  0  0  0
    6.1626    5.9740    0.0004 H   0  0  0  0  0  0
    7.4667    3.8478    0.0000 H   0  0  0  0  0  0
    6.3286    1.6947   -0.0003 H   0  0  0  0  0  0
    5.3456   -0.0138   -0.0003 H   0  0  0  0  0  0
    5.3756   -2.4149   -0.0001 H   0  0  0  0  0  0
    4.1751   -4.5765    0.0002 H   0  0  0  0  0  0
    1.6807   -4.6109    0.0005 H   0  0  0  0  0  0
    0.4062   -2.5344    0.0003 H   0  0  0  0  0  0
  1  2  1  0  0  0
  1 20  1  0  0  0
  1 21  1  0  0  0
  1 22  1  0  0  0
  2 19  1  0  0  0
  2  3  2  0  0  0
  3 12  1  0  0  0
  3  4  1  0  0  0
  4  5  2  0  0  0
  4 23  1  0  0  0
  5  6  1  0  0  0
  5 24  1  0  0  0
  6 11  1  0  0  0
  6  7  2  0  0  0
  7  8  1  0  0  0
  7 25  1  0  0  0
  8  9  2  0  0  0
  8 26  1  0  0  0
  9 10  1  0  0  0
  9 27  1  0  0  0
 10 11  2  0  0  0
 10 28  1  0  0  0
 11 12  1  0  0  0
 12 13  2  0  0  0
 13 14  1  0  0  0
 13 29  1  0  0  0
 14 19  1  0  0  0
 14 15  2  0  0  0
 15 16  1  0  0  0
 15 30  1  0  0  0
 16 17  2  0  0  0
 16 31  1  0  0  0
 17 18  1  0  0  0
 17 32  1  0  0  0
 18 19  2  0  0  0
 18 33  1  0  0  0
M  END
>  <i_m_Spin_multiplicity> (1)
1

>  <s_j_Task> (1)
Single Point

>  <s_j_QM_Method> (1)
DFT(b3lyp-d3)

>  <s_j_QM_Basis> (1)
cc-pvtz(-f)

>  <i_j_Number_of_canonical_orbitals> (1)
544

>  <i_j_Geometry_convergence_category> (1)
0

>  <r_j_Gas_Phase_Energy> (1)
-732.731232777619

>  <r_j_Final_Energy> (1)
-732.731232777619

>  <r_j_HOMO> (1)
-0.19784095099845

>  <r_j_LUMO> (1)
-0.0660275354617151

>  <r_j_Polarizability> (1)
241.012155976571

>  <r_j_QM_Dipole_(debye)> (1)
0.352258997524006

>  <r_j_QM_Dipole_X_(debye)> (1)
-0.342322721463624

>  <r_j_QM_Dipole_Y_(debye)> (1)
-0.083075509401565

>  <r_j_QM_Dipole_Z_(debye)> (1)
0.000124273996139612

>  <r_j_Lowest_Frequency_(cm-1)> (1)
75.0573138219154

>  <r_j_Highest_Frequency_(cm-1)> (1)
3173.55700492534

>  <r_j_2nd_Lowest_Frequency_(cm-1)> (1)
87.0902328363507

>  <i_j_Num_Negative_Frequencies> (1)
0

>  <r_j_Zero_Point_Energy_(kcal/mol)> (1)
168.132147108241

>  <r_j_Entropy_(cal/mol/K)_298.15K_1.00E+00atm> (1)
112.007097289335

>  <r_j_Enthalpy_(kcal/mol)_298.15K_1.00E+00atm> (1)
8.93410825149785

>  <r_j_Free_Energy_(kcal/mol)_298.15K_1.00E+00atm> (1)
-24.4608078053174

>  <r_j_Internal_Energy_(kcal/mol)_298.15K_1.00E+00atm> (1)
8.34162266267058

>  <r_j_Heat_Capacity_(cal/mol/K)_298.15K_1.00E+00atm> (1)
57.485945446668

>  <r_j_ln(Q)_298.15K_1.00E+00atm> (1)
41.2850679688824

>  <r_j_Total_Internal_Energy_(au)_298.15K_1.00E+00atm> (1)
-732.450003922586

>  <r_j_Total_Enthalpy_(au)_298.15K_1.00E+00atm> (1)
-732.449059736693

>  <r_j_Total_Free_Energy_(au)_298.15K_1.00E+00atm> (1)
-732.502277923276

>  <r_lp_tautomer_probability> (1)
1

>  <r_epik_Ionization_Penalty> (1)
  0.0000

>  <r_epik_Ionization_Penalty_Charging> (1)
  0.0000

>  <r_epik_Ionization_Penalty_Neutral> (1)
  0.0000

>  <r_epik_State_Penalty> (1)
  0.0000

>  <r_epik_Charging_Adjusted_Penalty> (1)
0

>  <i_epik_Tot_Q> (1)
0

>  <i_epik_Tot_abs_Q> (1)
0

>  <s_lp_Force_Field> (1)
S-OPLS

>  <r_lp_Energy> (1)
47.0051

>  <b_lp_Chiralities_Consistent> (1)
1

$$$$
