174_Ethylene glycol
                    3D
 Schrodinger Suite 2021-3.
 10  9  0  0  1  0            999 V2000
   -0.0099   -0.0060   -0.0004 C   0  0  0  0  0  0
    1.5099    0.0060   -0.0004 C   0  0  0  0  0  0
    1.9348   -1.3513    0.0003 O   0  0  0  0  0  0
   -0.4348    1.3513    0.0003 O   0  0  0  0  0  0
   -0.3608   -0.5526   -0.8891 H   0  0  0  0  0  0
   -0.3605   -0.5535    0.8880 H   0  0  0  0  0  0
    1.8608    0.5526   -0.8891 H   0  0  0  0  0  0
    1.8605    0.5535    0.8880 H   0  0  0  0  0  0
    2.8994   -1.3622    0.0000 H   0  0  0  0  0  0
   -1.3994    1.3622    0.0000 H   0  0  0  0  0  0
  1  2  1  0  0  0
  1  4  1  0  0  0
  1  5  1  0  0  0
  1  6  1  0  0  0
  2  3  1  0  0  0
  2  7  1  0  0  0
  2  8  1  0  0  0
  3  9  1  0  0  0
  4 10  1  0  0  0
M  END
>  <i_m_Spin_multiplicity> (1)
1

>  <s_j_Task> (1)
Single Point

>  <s_j_QM_Method> (1)
DFT(b3lyp-d3)

>  <s_j_QM_Basis> (1)
cc-pvtz(-f)

>  <i_j_Number_of_canonical_orbitals> (1)
146

>  <i_j_Geometry_convergence_category> (1)
0

>  <r_j_Gas_Phase_Energy> (1)
-230.344812978366

>  <r_j_Final_Energy> (1)
-230.344812978366

>  <r_j_HOMO> (1)
-0.275734163516371

>  <r_j_LUMO> (1)
0.021895839039066

>  <r_j_Polarizability> (1)
34.5032510781108

>  <r_j_QM_Dipole_(debye)> (1)
0.00228108546385074

>  <r_j_QM_Dipole_X_(debye)> (1)
1.69915086525828e-06

>  <r_j_QM_Dipole_Y_(debye)> (1)
-1.893283712936e-07

>  <r_j_QM_Dipole_Z_(debye)> (1)
-0.00228108482315591

>  <r_j_Lowest_Frequency_(cm-1)> (1)
139.171335558139

>  <r_j_Highest_Frequency_(cm-1)> (1)
3784.92056531368

>  <r_j_2nd_Lowest_Frequency_(cm-1)> (1)
305.276131842941

>  <i_j_Num_Negative_Frequencies> (1)
0

>  <r_j_Zero_Point_Energy_(kcal/mol)> (1)
53.2799026681811

>  <r_j_Entropy_(cal/mol/K)_298.15K_1.00E+00atm> (1)
69.0097921890098

>  <r_j_Enthalpy_(kcal/mol)_298.15K_1.00E+00atm> (1)
3.82464242355283

>  <r_j_Free_Energy_(kcal/mol)_298.15K_1.00E+00atm> (1)
-16.7506271176005

>  <r_j_Internal_Energy_(kcal/mol)_298.15K_1.00E+00atm> (1)
3.23215683472556

>  <r_j_Heat_Capacity_(cal/mol/K)_298.15K_1.00E+00atm> (1)
16.7710279511117

>  <r_j_ln(Q)_298.15K_1.00E+00atm> (1)
28.2717882653577

>  <r_j_Total_Internal_Energy_(au)_298.15K_1.00E+00atm> (1)
-230.254755278515

>  <r_j_Total_Enthalpy_(au)_298.15K_1.00E+00atm> (1)
-230.253811092623

>  <r_j_Total_Free_Energy_(au)_298.15K_1.00E+00atm> (1)
-230.286599871956

>  <r_lp_tautomer_probability> (1)
1

>  <r_epik_Ionization_Penalty> (1)
  0.0000

>  <r_epik_Ionization_Penalty_Charging> (1)
  0.0000

>  <r_epik_Ionization_Penalty_Neutral> (1)
  0.0000

>  <r_epik_State_Penalty> (1)
  0.0000

>  <r_epik_Charging_Adjusted_Penalty> (1)
0

>  <i_epik_Tot_Q> (1)
0

>  <i_epik_Tot_abs_Q> (1)
0

>  <s_lp_Force_Field> (1)
S-OPLS

>  <r_lp_Energy> (1)
2.5074

>  <b_lp_Chiralities_Consistent> (1)
1

$$$$
