17520_1,2-Benzisothiazolin-3-one
                    3D
 Schrodinger Suite 2021-3.
 15 16  0  0  1  0            999 V2000
   -0.0131    1.3283    0.0102 C   0  0  0  0  0  0
    1.1986    2.0378    0.0021 C   0  0  0  0  0  0
    2.4258    1.3789   -0.0137 C   0  0  0  0  0  0
    2.4150   -0.0176   -0.0213 C   0  0  0  0  0  0
    1.2130   -0.7342   -0.0134 C   0  0  0  0  0  0
   -0.0097   -0.0621    0.0024 C   0  0  0  0  0  0
    1.3861   -2.2017   -0.0232 C   0  0  0  0  0  0
    0.5256   -3.0696   -0.0194 O   0  0  0  0  0  0
    2.7504   -2.4532   -0.0381 N   0  0  0  0  0  0
    3.8209   -1.0893   -0.0413 S   0  0  0  0  0  0
   -0.9531    1.8707    0.0224 H   0  0  0  0  0  0
    1.1834    3.1239    0.0083 H   0  0  0  0  0  0
    3.3569    1.9364   -0.0199 H   0  0  0  0  0  0
   -0.9258   -0.6444    0.0082 H   0  0  0  0  0  0
    3.1146   -3.3953   -0.0470 H   0  0  0  0  0  0
  1  6  1  0  0  0
  1  2  2  0  0  0
  1 11  1  0  0  0
  2  3  1  0  0  0
  2 12  1  0  0  0
  3  4  2  0  0  0
  3 13  1  0  0  0
  4 10  1  0  0  0
  4  5  1  0  0  0
  5  6  2  0  0  0
  5  7  1  0  0  0
  6 14  1  0  0  0
  7  8  2  0  0  0
  7  9  1  0  0  0
  9 10  1  0  0  0
  9 15  1  0  0  0
M  END
>  <i_m_Spin_multiplicity> (1)
1

>  <s_j_Task> (1)
Single Point

>  <s_j_QM_Method> (1)
DFT(b3lyp-d3)

>  <s_j_QM_Basis> (1)
cc-pvtz(-f)

>  <i_j_Number_of_canonical_orbitals> (1)
274

>  <i_j_Geometry_convergence_category> (1)
0

>  <r_j_Gas_Phase_Energy> (1)
-798.093298527114

>  <r_j_Final_Energy> (1)
-798.093298527114

>  <r_j_HOMO> (1)
-0.229712961343742

>  <r_j_LUMO> (1)
-0.0544543455933357

>  <r_j_Polarizability> (1)
102.444061367783

>  <r_j_QM_Dipole_(debye)> (1)
3.39963084222357

>  <r_j_QM_Dipole_X_(debye)> (1)
2.13453828110085

>  <r_j_QM_Dipole_Y_(debye)> (1)
2.64597571295146

>  <r_j_QM_Dipole_Z_(debye)> (1)
-0.00697971229668747

>  <r_j_Lowest_Frequency_(cm-1)> (1)
87.519870308187

>  <r_j_Highest_Frequency_(cm-1)> (1)
3590.77434387342

>  <r_j_2nd_Lowest_Frequency_(cm-1)> (1)
170.730030469189

>  <i_j_Num_Negative_Frequencies> (1)
0

>  <r_j_Zero_Point_Energy_(kcal/mol)> (1)
66.4759906485299

>  <r_j_Entropy_(cal/mol/K)_298.15K_1.00E+00atm> (1)
87.3660115244409

>  <r_j_Enthalpy_(kcal/mol)_298.15K_1.00E+00atm> (1)
5.43286876165411

>  <r_j_Free_Energy_(kcal/mol)_298.15K_1.00E+00atm> (1)
-20.6153075743579

>  <r_j_Internal_Energy_(kcal/mol)_298.15K_1.00E+00atm> (1)
4.84038317282683

>  <r_j_Heat_Capacity_(cal/mol/K)_298.15K_1.00E+00atm> (1)
30.0841970931577

>  <r_j_ln(Q)_298.15K_1.00E+00atm> (1)
34.7946143553676

>  <r_j_Total_Internal_Energy_(au)_298.15K_1.00E+00atm> (1)
-797.979648650529

>  <r_j_Total_Enthalpy_(au)_298.15K_1.00E+00atm> (1)
-797.978704464637

>  <r_j_Total_Free_Energy_(au)_298.15K_1.00E+00atm> (1)
-798.020214876163

>  <r_lp_tautomer_probability> (1)
1

>  <r_epik_Ionization_Penalty> (1)
  0.0000

>  <r_epik_Ionization_Penalty_Charging> (1)
  0.0000

>  <r_epik_Ionization_Penalty_Neutral> (1)
  0.0000

>  <r_epik_State_Penalty> (1)
  0.0000

>  <r_epik_Charging_Adjusted_Penalty> (1)
3.9888e-08

>  <i_epik_Tot_Q> (1)
0

>  <i_epik_Tot_abs_Q> (1)
0

>  <s_lp_Force_Field> (1)
S-OPLS

>  <r_lp_Energy> (1)
8.52216

>  <b_lp_Chiralities_Consistent> (1)
1

$$$$
