176293_2-propenoic acid, 2-methyl dodecyl ester
                    3D
 Schrodinger Suite 2021-3.
 54 53  0  0  1  0            999 V2000
   -6.9243    5.8186   -0.0030 C   0  0  0  0  0  0
   -6.3220    4.4105   -0.0018 C   0  0  0  0  0  0
   -4.7884    4.4103   -0.0011 C   0  0  0  0  0  0
   -4.1837    3.0021    0.0000 C   0  0  0  0  0  0
   -2.6505    2.9866    0.0005 C   0  0  0  0  0  0
   -2.0659    1.5696    0.0014 C   0  0  0  0  0  0
   -0.5334    1.5282    0.0017 C   0  0  0  0  0  0
    0.0242    0.1003    0.0022 C   0  0  0  0  0  0
    1.5555    0.0279    0.0022 C   0  0  0  0  0  0
    2.0829   -1.4116    0.0024 C   0  0  0  0  0  0
    3.6123   -1.5141    0.0019 C   0  0  0  0  0  0
    4.1108   -2.9642    0.0017 C   0  0  0  0  0  0
    5.6395   -3.0837    0.0009 C   0  0  0  0  0  0
    6.0906   -4.5349    0.0001 C   0  0  0  0  0  0
    7.5344   -4.5476   -0.0004 O   0  0  0  0  0  0
    8.1083   -5.7718   -0.0011 C   0  0  0  0  0  0
    7.4617   -6.8031   -0.0012 O   0  0  0  0  0  0
    9.6056   -5.7240   -0.0018 C   0  0  0  0  0  0
   10.2542   -4.5524   -0.0016 C   0  0  0  0  0  0
   10.3097   -7.0629   -0.0026 C   0  0  0  0  0  0
   -8.0189    5.7886   -0.0035 H   0  0  0  0  0  0
   -6.6056    6.3829   -0.8871 H   0  0  0  0  0  0
   -6.6064    6.3841    0.8805 H   0  0  0  0  0  0
   -6.6829    3.8566    0.8757 H   0  0  0  0  0  0
   -6.6821    3.8554   -0.8789 H   0  0  0  0  0  0
   -4.4247    4.9635   -0.8791 H   0  0  0  0  0  0
   -4.4254    4.9645    0.8765 H   0  0  0  0  0  0
   -4.5512    2.4510    0.8776 H   0  0  0  0  0  0
   -4.5506    2.4499   -0.8773 H   0  0  0  0  0  0
   -2.2795    3.5344   -0.8776 H   0  0  0  0  0  0
   -2.2801    3.5352    0.8783 H   0  0  0  0  0  0
   -2.4421    1.0242    0.8789 H   0  0  0  0  0  0
   -2.4417    1.0233   -0.8757 H   0  0  0  0  0  0
   -0.1528    2.0692   -0.8765 H   0  0  0  0  0  0
   -0.1530    2.0698    0.8796 H   0  0  0  0  0  0
   -0.3625   -0.4378    0.8797 H   0  0  0  0  0  0
   -0.3625   -0.4385   -0.8748 H   0  0  0  0  0  0
    1.9470    0.5609   -0.8761 H   0  0  0  0  0  0
    1.9471    0.5613    0.8801 H   0  0  0  0  0  0
    1.6857   -1.9416    0.8799 H   0  0  0  0  0  0
    1.6852   -1.9419   -0.8748 H   0  0  0  0  0  0
    4.0146   -0.9897   -0.8763 H   0  0  0  0  0  0
    4.0151   -0.9898    0.8800 H   0  0  0  0  0  0
    3.7040   -3.4857    0.8796 H   0  0  0  0  0  0
    3.7032   -3.4856   -0.8760 H   0  0  0  0  0  0
    6.0571   -2.5789   -0.8791 H   0  0  0  0  0  0
    6.0579   -2.5798    0.8811 H   0  0  0  0  0  0
    5.7283   -5.0752    0.8819 H   0  0  0  0  0  0
    5.7279   -5.0743   -0.8822 H   0  0  0  0  0  0
    9.7240   -3.6077   -0.0010 H   0  0  0  0  0  0
   11.3402   -4.5168   -0.0022 H   0  0  0  0  0  0
    9.5847   -7.8774   -0.0023 H   0  0  0  0  0  0
   10.9486   -7.1681    0.8801 H   0  0  0  0  0  0
   10.9474   -7.1677   -0.8863 H   0  0  0  0  0  0
  1  2  1  0  0  0
  1 21  1  0  0  0
  1 22  1  0  0  0
  1 23  1  0  0  0
  2  3  1  0  0  0
  2 24  1  0  0  0
  2 25  1  0  0  0
  3  4  1  0  0  0
  3 26  1  0  0  0
  3 27  1  0  0  0
  4  5  1  0  0  0
  4 28  1  0  0  0
  4 29  1  0  0  0
  5  6  1  0  0  0
  5 30  1  0  0  0
  5 31  1  0  0  0
  6  7  1  0  0  0
  6 32  1  0  0  0
  6 33  1  0  0  0
  7  8  1  0  0  0
  7 34  1  0  0  0
  7 35  1  0  0  0
  8  9  1  0  0  0
  8 36  1  0  0  0
  8 37  1  0  0  0
  9 10  1  0  0  0
  9 38  1  0  0  0
  9 39  1  0  0  0
 10 11  1  0  0  0
 10 40  1  0  0  0
 10 41  1  0  0  0
 11 12  1  0  0  0
 11 42  1  0  0  0
 11 43  1  0  0  0
 12 13  1  0  0  0
 12 44  1  0  0  0
 12 45  1  0  0  0
 13 14  1  0  0  0
 13 46  1  0  0  0
 13 47  1  0  0  0
 14 15  1  0  0  0
 14 48  1  0  0  0
 14 49  1  0  0  0
 15 16  1  0  0  0
 16 17  2  0  0  0
 16 18  1  0  0  0
 18 19  2  0  0  0
 18 20  1  0  0  0
 19 50  1  0  0  0
 19 51  1  0  0  0
 20 52  1  0  0  0
 20 53  1  0  0  0
 20 54  1  0  0  0
M  END
>  <i_m_Spin_multiplicity> (1)
1

>  <s_j_Task> (1)
Single Point

>  <s_j_QM_Method> (1)
DFT(b3lyp-d3)

>  <s_j_QM_Basis> (1)
cc-pvtz(-f)

>  <i_j_Number_of_canonical_orbitals> (1)
759

>  <i_j_Geometry_convergence_category> (1)
3

>  <r_j_Gas_Phase_Energy> (1)
-857.2047676056

>  <r_j_Final_Energy> (1)
-857.2047676056

>  <r_j_HOMO> (1)
-0.284462462631278

>  <r_j_LUMO> (1)
-0.0815257704558898

>  <r_j_Polarizability> (1)
230.182504456189

>  <r_j_QM_Dipole_(debye)> (1)
1.9833359786815

>  <r_j_QM_Dipole_X_(debye)> (1)
0.228572740285082

>  <r_j_QM_Dipole_Y_(debye)> (1)
1.97012070240394

>  <r_j_QM_Dipole_Z_(debye)> (1)
0.000724355211846929

>  <r_j_Lowest_Frequency_(cm-1)> (1)
24.2226410244985

>  <r_j_Highest_Frequency_(cm-1)> (1)
3200.37467172361

>  <r_j_2nd_Lowest_Frequency_(cm-1)> (1)
30.419106751366

>  <i_j_Num_Negative_Frequencies> (1)
0

>  <r_j_Zero_Point_Energy_(kcal/mol)> (1)
309.131063813344

>  <r_j_Entropy_(cal/mol/K)_298.15K_1.00E+00atm> (1)
160.949355081379

>  <r_j_Enthalpy_(kcal/mol)_298.15K_1.00E+00atm> (1)
15.5295611474896

>  <r_j_Free_Energy_(kcal/mol)_298.15K_1.00E+00atm> (1)
-32.4574890700235

>  <r_j_Internal_Energy_(kcal/mol)_298.15K_1.00E+00atm> (1)
14.9370755586623

>  <r_j_Heat_Capacity_(cal/mol/K)_298.15K_1.00E+00atm> (1)
89.1997994084604

>  <r_j_ln(Q)_298.15K_1.00E+00atm> (1)
54.781904711417

>  <r_j_Total_Internal_Energy_(au)_298.15K_1.00E+00atm> (1)
-856.688332149459

>  <r_j_Total_Enthalpy_(au)_298.15K_1.00E+00atm> (1)
-856.687387963567

>  <r_j_Total_Free_Energy_(au)_298.15K_1.00E+00atm> (1)
-856.763860196277

>  <r_lp_tautomer_probability> (1)
1

>  <r_epik_Ionization_Penalty> (1)
  0.0000

>  <r_epik_Ionization_Penalty_Charging> (1)
  0.0000

>  <r_epik_Ionization_Penalty_Neutral> (1)
  0.0000

>  <r_epik_State_Penalty> (1)
  0.0000

>  <r_epik_Charging_Adjusted_Penalty> (1)
0

>  <i_epik_Tot_Q> (1)
0

>  <i_epik_Tot_abs_Q> (1)
0

>  <s_lp_Force_Field> (1)
S-OPLS

>  <r_lp_Energy> (1)
10.174842

>  <b_lp_Chiralities_Consistent> (1)
1

>  <s_epik_Chemistry_Notes> (1)
This compound has an ester and may undergo hydrolysis at high or low pH.

$$$$
