17627_S-pentylbenzene
                    3D
 Schrodinger Suite 2021-3.
 27 27  0  0  1  0            999 V2000
   -2.1453    1.4380   -0.1063 C   0  0  0  0  0  0
   -0.6159    1.4337   -0.0338 C   0  0  0  0  0  0
   -0.0279    0.0188    0.0023 C   0  0  0  0  0  0
    1.5148   -0.0203    0.0575 C   0  0  0  0  0  0
    2.0343   -1.4670   -0.0257 C   0  0  0  0  0  0
    2.0561    0.6953    1.2867 C   0  0  0  0  0  0
    2.8512    1.8398    1.1605 C   0  0  0  0  0  0
    3.3410    2.5062    2.2853 C   0  0  0  0  0  0
    3.0403    2.0361    3.5627 C   0  0  0  0  0  0
    2.2473    0.8957    3.7047 C   0  0  0  0  0  0
    1.7617    0.2343    2.5782 C   0  0  0  0  0  0
   -2.5430    2.4578   -0.1334 H   0  0  0  0  0  0
   -2.5812    0.9338    0.7639 H   0  0  0  0  0  0
   -2.5024    0.9164   -1.0020 H   0  0  0  0  0  0
   -0.2025    1.9731   -0.8972 H   0  0  0  0  0  0
   -0.2858    1.9851    0.8547 H   0  0  0  0  0  0
   -0.4334   -0.5227    0.8687 H   0  0  0  0  0  0
   -0.3605   -0.5373   -0.8852 H   0  0  0  0  0  0
    1.8867    0.5183   -0.8252 H   0  0  0  0  0  0
    3.1281   -1.4938   -0.0096 H   0  0  0  0  0  0
    1.6916   -1.9512   -0.9466 H   0  0  0  0  0  0
    1.6744   -2.0650    0.8187 H   0  0  0  0  0  0
    3.0866    2.2156    0.1677 H   0  0  0  0  0  0
    3.9556    3.3936    2.1615 H   0  0  0  0  0  0
    3.4184    2.5526    4.4403 H   0  0  0  0  0  0
    2.0060    0.5215    4.6959 H   0  0  0  0  0  0
    1.1434   -0.6504    2.7050 H   0  0  0  0  0  0
  1  2  1  0  0  0
  1 12  1  0  0  0
  1 13  1  0  0  0
  1 14  1  0  0  0
  2  3  1  0  0  0
  2 15  1  0  0  0
  2 16  1  0  0  0
  3  4  1  0  0  0
  3 17  1  0  0  0
  3 18  1  0  0  0
  4  5  1  0  0  0
  4  6  1  0  0  0
  4 19  1  0  0  0
  5 20  1  0  0  0
  5 21  1  0  0  0
  5 22  1  0  0  0
  6 11  1  0  0  0
  6  7  2  0  0  0
  7  8  1  0  0  0
  7 23  1  0  0  0
  8  9  2  0  0  0
  8 24  1  0  0  0
  9 10  1  0  0  0
  9 25  1  0  0  0
 10 11  2  0  0  0
 10 26  1  0  0  0
 11 27  1  0  0  0
M  END
>  <i_m_Spin_multiplicity> (1)
1

>  <s_j_Task> (1)
Single Point

>  <s_j_QM_Method> (1)
DFT(b3lyp-d3)

>  <s_j_QM_Basis> (1)
cc-pvtz(-f)

>  <i_j_Number_of_canonical_orbitals> (1)
389

>  <i_j_Geometry_convergence_category> (1)
3

>  <r_j_Gas_Phase_Energy> (1)
-428.981278364047

>  <r_j_Final_Energy> (1)
-428.981278364047

>  <r_j_HOMO> (1)
-0.249907183182038

>  <r_j_LUMO> (1)
-0.0176443071255102

>  <r_j_Polarizability> (1)
125.220476749467

>  <r_j_QM_Dipole_(debye)> (1)
0.24533171138618

>  <r_j_QM_Dipole_X_(debye)> (1)
-0.0878444522584518

>  <r_j_QM_Dipole_Y_(debye)> (1)
-0.0673381989440849

>  <r_j_QM_Dipole_Z_(debye)> (1)
-0.218944211574665

>  <r_j_Lowest_Frequency_(cm-1)> (1)
74.2648531420036

>  <r_j_Highest_Frequency_(cm-1)> (1)
3145.0121419844

>  <r_j_2nd_Lowest_Frequency_(cm-1)> (1)
81.8497670691434

>  <i_j_Num_Negative_Frequencies> (1)
0

>  <r_j_Zero_Point_Energy_(kcal/mol)> (1)
151.420723887037

>  <r_j_Entropy_(cal/mol/K)_298.15K_1.00E+00atm> (1)
99.5926044366204

>  <r_j_Enthalpy_(kcal/mol)_298.15K_1.00E+00atm> (1)
7.27977489507997

>  <r_j_Free_Energy_(kcal/mol)_298.15K_1.00E+00atm> (1)
-22.4137601176984

>  <r_j_Internal_Energy_(kcal/mol)_298.15K_1.00E+00atm> (1)
6.6872893062527

>  <r_j_Heat_Capacity_(cal/mol/K)_298.15K_1.00E+00atm> (1)
42.3229623708932

>  <r_j_ln(Q)_298.15K_1.00E+00atm> (1)
37.830051127594

>  <r_j_Total_Internal_Energy_(au)_298.15K_1.00E+00atm> (1)
-428.729317205288

>  <r_j_Total_Enthalpy_(au)_298.15K_1.00E+00atm> (1)
-428.728373019396

>  <r_j_Total_Free_Energy_(au)_298.15K_1.00E+00atm> (1)
-428.775692679787

>  <r_lp_tautomer_probability> (1)
1

>  <r_epik_Ionization_Penalty> (1)
  0.0000

>  <r_epik_Ionization_Penalty_Charging> (1)
  0.0000

>  <r_epik_Ionization_Penalty_Neutral> (1)
  0.0000

>  <r_epik_State_Penalty> (1)
  0.0000

>  <r_epik_Charging_Adjusted_Penalty> (1)
0

>  <i_epik_Tot_Q> (1)
0

>  <i_epik_Tot_abs_Q> (1)
0

>  <s_lp_Force_Field> (1)
S-OPLS

>  <r_lp_Energy> (1)
11.592392

>  <b_lp_Chiralities_Consistent> (1)
1

$$$$
