176439_4-(1-propenyl)syringol
                    3D
 Schrodinger Suite 2021-3.
 28 28  0  0  1  0            999 V2000
   -2.3914    0.9827    0.0000 C   0  0  0  0  0  0
   -0.8873    1.1179   -0.0002 C   0  0  0  0  0  0
   -0.0438    0.0753    0.0001 C   0  0  0  0  0  0
    1.4256    0.0962    0.0000 C   0  0  0  0  0  0
    2.1715    1.2876   -0.0001 C   0  0  0  0  0  0
    3.5606    1.2305   -0.0001 C   0  0  0  0  0  0
    4.2466    0.0043   -0.0001 C   0  0  0  0  0  0
    3.5074   -1.1867    0.0000 C   0  0  0  0  0  0
    2.1106   -1.1306    0.0001 C   0  0  0  0  0  0
    4.2487   -2.3325    0.0000 O   0  0  0  0  0  0
    3.5592   -3.5706    0.0001 C   0  0  0  0  0  0
    5.6074   -0.0413   -0.0001 O   0  0  0  0  0  0
    4.4068    2.3170    0.0000 O   0  0  0  0  0  0
    3.8332    3.6149    0.0002 C   0  0  0  0  0  0
   -2.8823    1.9597   -0.0002 H   0  0  0  0  0  0
   -2.7485    0.4369    0.8819 H   0  0  0  0  0  0
   -2.7487    0.4364   -0.8814 H   0  0  0  0  0  0
   -0.4899    2.1314   -0.0005 H   0  0  0  0  0  0
   -0.4805   -0.9250    0.0004 H   0  0  0  0  0  0
    1.6674    2.2452   -0.0001 H   0  0  0  0  0  0
    1.5347   -2.0482    0.0001 H   0  0  0  0  0  0
    4.3303   -4.3429    0.0001 H   0  0  0  0  0  0
    2.9315   -3.6886   -0.8937 H   0  0  0  0  0  0
    2.9315   -3.6885    0.8939 H   0  0  0  0  0  0
    5.9127    0.8790   -0.0001 H   0  0  0  0  0  0
    4.6684    4.3170    0.0003 H   0  0  0  0  0  0
    3.2188    3.7815    0.8944 H   0  0  0  0  0  0
    3.2186    3.7818   -0.8937 H   0  0  0  0  0  0
  1  2  1  0  0  0
  1 15  1  0  0  0
  1 16  1  0  0  0
  1 17  1  0  0  0
  2  3  2  0  0  0
  2 18  1  0  0  0
  3  4  1  0  0  0
  3 19  1  0  0  0
  4  9  1  0  0  0
  4  5  2  0  0  0
  5  6  1  0  0  0
  5 20  1  0  0  0
  6  7  2  0  0  0
  6 13  1  0  0  0
  7  8  1  0  0  0
  7 12  1  0  0  0
  8  9  2  0  0  0
  8 10  1  0  0  0
  9 21  1  0  0  0
 10 11  1  0  0  0
 11 22  1  0  0  0
 11 23  1  0  0  0
 11 24  1  0  0  0
 12 25  1  0  0  0
 13 14  1  0  0  0
 14 26  1  0  0  0
 14 27  1  0  0  0
 14 28  1  0  0  0
M  END
>  <i_m_Spin_multiplicity> (1)
1

>  <s_j_Task> (1)
Single Point

>  <s_j_QM_Method> (1)
DFT(b3lyp-d3)

>  <s_j_QM_Basis> (1)
cc-pvtz(-f)

>  <i_j_Number_of_canonical_orbitals> (1)
440

>  <i_j_Geometry_convergence_category> (1)
0

>  <r_j_Gas_Phase_Energy> (1)
-653.468702353579

>  <r_j_Final_Energy> (1)
-653.468702353579

>  <r_j_HOMO> (1)
-0.191671401153138

>  <r_j_LUMO> (1)
-0.0280915166363431

>  <r_j_Polarizability> (1)
154.367588832389

>  <r_j_QM_Dipole_(debye)> (1)
2.0349838815463

>  <r_j_QM_Dipole_X_(debye)> (1)
-1.4260258746313

>  <r_j_QM_Dipole_Y_(debye)> (1)
1.45176082529439

>  <r_j_QM_Dipole_Z_(debye)> (1)
0.000330417706180076

>  <r_j_Lowest_Frequency_(cm-1)> (1)
-94.2957549833991

>  <r_j_Highest_Frequency_(cm-1)> (1)
3718.31891050556

>  <r_j_2nd_Lowest_Frequency_(cm-1)> (1)
70.6753579587569

>  <i_j_Num_Negative_Frequencies> (1)
1

>  <r_j_Zero_Point_Energy_(kcal/mol)> (1)
144.134123942723

>  <r_j_Entropy_(cal/mol/K)_298.15K_1.00E+00atm> (1)
113.240775753567

>  <r_j_Enthalpy_(kcal/mol)_298.15K_1.00E+00atm> (1)
9.05206488918086

>  <r_j_Free_Energy_(kcal/mol)_298.15K_1.00E+00atm> (1)
-24.7106724017452

>  <r_j_Internal_Energy_(kcal/mol)_298.15K_1.00E+00atm> (1)
8.45957930035358

>  <r_j_Heat_Capacity_(cal/mol/K)_298.15K_1.00E+00atm> (1)
51.6866163691476

>  <r_j_ln(Q)_298.15K_1.00E+00atm> (1)
41.7067906253312

>  <r_j_Total_Internal_Energy_(au)_298.15K_1.00E+00atm> (1)
-653.225528807142

>  <r_j_Total_Enthalpy_(au)_298.15K_1.00E+00atm> (1)
-653.22458462125

>  <r_j_Total_Free_Energy_(au)_298.15K_1.00E+00atm> (1)
-653.278388968284

>  <r_epik_Ionization_Penalty> (1)
  0.0010

>  <r_epik_Ionization_Penalty_Charging> (1)
  0.0000

>  <r_epik_Ionization_Penalty_Neutral> (1)
  0.0010

>  <r_epik_State_Penalty> (1)
  0.0006

>  <r_epik_Charging_Adjusted_Penalty> (1)
0.000640304783404101

>  <i_epik_Tot_Q> (1)
0

>  <i_epik_Tot_abs_Q> (1)
0

>  <s_lp_Force_Field> (1)
S-OPLS

>  <r_lp_Energy> (1)
18.89533

>  <b_lp_Chiralities_Consistent> (1)
1

$$$$
