176_Acetic acid
                    3D
 Schrodinger Suite 2021-3.
  7  6  0  0  1  0            999 V2000
    0.0007    0.0104    0.0000 C   0  0  0  0  0  0
    1.5758    0.0183    0.0000 C   0  0  0  0  0  0
    2.0978   -1.1256    0.0000 O   0  0  0  0  0  0
    2.1181    1.1512    0.0000 O   0  5  0  0  0  0
   -0.4204    1.0231    0.0000 H   0  0  0  0  0  0
   -0.3701   -0.5340    0.8796 H   0  0  0  0  0  0
   -0.3701   -0.5340   -0.8796 H   0  0  0  0  0  0
  1  2  1  0  0  0
  1  5  1  0  0  0
  1  6  1  0  0  0
  1  7  1  0  0  0
  2  3  2  0  0  0
  2  4  1  0  0  0
M  END
>  <i_m_Spin_multiplicity> (1)
1

>  <s_j_Task> (1)
Single Point

>  <s_j_QM_Method> (1)
DFT(b3lyp-d3)

>  <s_j_QM_Basis> (1)
cc-pvtz(-f)

>  <i_j_Number_of_canonical_orbitals> (1)
119

>  <i_j_Geometry_convergence_category> (1)
0

>  <r_j_Gas_Phase_Energy> (1)
-228.603274126006

>  <r_j_Final_Energy> (1)
-228.603274126006

>  <r_j_HOMO> (1)
-0.0182787382431424

>  <r_j_LUMO> (1)
0.204882478682538

>  <r_j_Polarizability> (1)
35.2880465541768

>  <r_j_QM_Dipole_(debye)> (1)
2.76996963890676

>  <r_j_QM_Dipole_X_(debye)> (1)
-2.76996148435729

>  <r_j_QM_Dipole_Y_(debye)> (1)
-0.00672128279238242

>  <r_j_QM_Dipole_Z_(debye)> (1)
2.48679037181203e-08

>  <r_j_Lowest_Frequency_(cm-1)> (1)
185.588731528821

>  <r_j_Highest_Frequency_(cm-1)> (1)
3018.714728065

>  <r_j_2nd_Lowest_Frequency_(cm-1)> (1)
440.841909532475

>  <i_j_Num_Negative_Frequencies> (1)
0

>  <r_j_Zero_Point_Energy_(kcal/mol)> (1)
30.0053189885528

>  <r_j_Entropy_(cal/mol/K)_298.15K_1.00E+00atm> (1)
66.2954552062618

>  <r_j_Enthalpy_(kcal/mol)_298.15K_1.00E+00atm> (1)
3.20295182158726

>  <r_j_Free_Energy_(kcal/mol)_298.15K_1.00E+00atm> (1)
-16.5630381481597

>  <r_j_Internal_Energy_(kcal/mol)_298.15K_1.00E+00atm> (1)
2.61046623275998

>  <r_j_Heat_Capacity_(cal/mol/K)_298.15K_1.00E+00atm> (1)
12.9720564423425

>  <r_j_ln(Q)_298.15K_1.00E+00atm> (1)
27.9551747088793

>  <r_j_Total_Internal_Energy_(au)_298.15K_1.00E+00atm> (1)
-228.551297563451

>  <r_j_Total_Enthalpy_(au)_298.15K_1.00E+00atm> (1)
-228.550353377559

>  <r_j_Total_Free_Energy_(au)_298.15K_1.00E+00atm> (1)
-228.581852487795

>  <r_epik_Ionization_Penalty> (1)
  0.0040

>  <r_epik_Ionization_Penalty_Charging> (1)
  0.0040

>  <r_epik_Ionization_Penalty_Neutral> (1)
  0.0000

>  <r_epik_State_Penalty> (1)
  0.0029

>  <r_epik_Charging_Adjusted_Penalty> (1)
0.00685024

>  <i_epik_Tot_Q> (1)
-1

>  <i_epik_Tot_abs_Q> (1)
1

>  <s_lp_Force_Field> (1)
S-OPLS

>  <r_lp_Energy> (1)
-0.48153

>  <b_lp_Chiralities_Consistent> (1)
1

$$$$
