177043_Syringyl acetone
                    3D
 Schrodinger Suite 2021-3.
 29 29  0  0  1  0            999 V2000
   -0.5798    2.4574    0.6062 C   0  0  0  0  0  0
   -0.6081    1.2587   -0.3212 C   0  0  0  0  0  0
   -0.9722    1.3378   -1.4798 O   0  0  0  0  0  0
   -0.0867   -0.0598    0.2535 C   0  0  0  0  0  0
    1.4325   -0.0519    0.2048 C   0  0  0  0  0  0
    2.1919   -0.1283    1.3753 C   0  0  0  0  0  0
    3.5919   -0.0862    1.3227 C   0  0  0  0  0  0
    4.2360    0.0426    0.0838 C   0  0  0  0  0  0
    3.4616    0.1268   -1.0842 C   0  0  0  0  0  0
    2.0700    0.0828   -1.0340 C   0  0  0  0  0  0
    4.2168    0.2595   -2.2253 O   0  0  0  0  0  0
    3.5368    0.4100   -3.4646 C   0  0  0  0  0  0
    5.5962    0.0878    0.0311 O   0  0  0  0  0  0
    4.4188   -0.1604    2.4047 O   0  0  0  0  0  0
    3.8273   -0.2765    3.6874 C   0  0  0  0  0  0
    0.4035    2.5397    1.0818 H   0  0  0  0  0  0
   -1.3171    2.3237    1.4069 H   0  0  0  0  0  0
   -0.8084    3.3670    0.0495 H   0  0  0  0  0  0
   -0.4291   -0.1899    1.2856 H   0  0  0  0  0  0
   -0.4949   -0.8703   -0.3577 H   0  0  0  0  0  0
    1.6872   -0.2274    2.3288 H   0  0  0  0  0  0
    1.4713    0.1641   -1.9331 H   0  0  0  0  0  0
    4.3118    0.5190   -4.2248 H   0  0  0  0  0  0
    2.8977    1.3018   -3.4639 H   0  0  0  0  0  0
    2.9239   -0.4706   -3.6941 H   0  0  0  0  0  0
    5.8315    0.1853   -0.9044 H   0  0  0  0  0  0
    4.6553   -0.3137    4.3971 H   0  0  0  0  0  0
    3.2316   -1.1948    3.7806 H   0  0  0  0  0  0
    3.1902    0.5872    3.9225 H   0  0  0  0  0  0
  1  2  1  0  0  0
  1 16  1  0  0  0
  1 17  1  0  0  0
  1 18  1  0  0  0
  2  3  2  0  0  0
  2  4  1  0  0  0
  4  5  1  0  0  0
  4 19  1  0  0  0
  4 20  1  0  0  0
  5 10  1  0  0  0
  5  6  2  0  0  0
  6  7  1  0  0  0
  6 21  1  0  0  0
  7  8  2  0  0  0
  7 14  1  0  0  0
  8  9  1  0  0  0
  8 13  1  0  0  0
  9 10  2  0  0  0
  9 11  1  0  0  0
 10 22  1  0  0  0
 11 12  1  0  0  0
 12 23  1  0  0  0
 12 24  1  0  0  0
 12 25  1  0  0  0
 13 26  1  0  0  0
 14 15  1  0  0  0
 15 27  1  0  0  0
 15 28  1  0  0  0
 15 29  1  0  0  0
M  END
>  <i_m_Spin_multiplicity> (1)
1

>  <s_j_Task> (1)
Single Point

>  <s_j_QM_Method> (1)
DFT(b3lyp-d3)

>  <s_j_QM_Basis> (1)
cc-pvtz(-f)

>  <i_j_Number_of_canonical_orbitals> (1)
464

>  <i_j_Geometry_convergence_category> (1)
0

>  <r_j_Gas_Phase_Energy> (1)
-728.740581519769

>  <r_j_Final_Energy> (1)
-728.740581519769

>  <r_j_HOMO> (1)
-0.205640303810058

>  <r_j_LUMO> (1)
-0.0246660830852223

>  <r_j_Polarizability> (1)
145.703154119047

>  <r_j_QM_Dipole_(debye)> (1)
1.21738336159494

>  <r_j_QM_Dipole_X_(debye)> (1)
-0.324458692902118

>  <r_j_QM_Dipole_Y_(debye)> (1)
-0.0214080487945945

>  <r_j_QM_Dipole_Z_(debye)> (1)
1.17315408243558

>  <r_j_Lowest_Frequency_(cm-1)> (1)
58.3042971528129

>  <r_j_Highest_Frequency_(cm-1)> (1)
3719.40233809244

>  <r_j_2nd_Lowest_Frequency_(cm-1)> (1)
70.2518803970662

>  <i_j_Num_Negative_Frequencies> (1)
0

>  <r_j_Zero_Point_Energy_(kcal/mol)> (1)
147.473882820054

>  <r_j_Entropy_(cal/mol/K)_298.15K_1.00E+00atm> (1)
119.037242506026

>  <r_j_Enthalpy_(kcal/mol)_298.15K_1.00E+00atm> (1)
9.86868790903713

>  <r_j_Free_Energy_(kcal/mol)_298.15K_1.00E+00atm> (1)
-25.6222659441346

>  <r_j_Internal_Energy_(kcal/mol)_298.15K_1.00E+00atm> (1)
9.27620232020985

>  <r_j_Heat_Capacity_(cal/mol/K)_298.15K_1.00E+00atm> (1)
56.4883332845271

>  <r_j_ln(Q)_298.15K_1.00E+00atm> (1)
43.2453825498939

>  <r_j_Total_Internal_Energy_(au)_298.15K_1.00E+00atm> (1)
-728.490784357122

>  <r_j_Total_Enthalpy_(au)_298.15K_1.00E+00atm> (1)
-728.48984017123

>  <r_j_Total_Free_Energy_(au)_298.15K_1.00E+00atm> (1)
-728.54639860668

>  <r_lp_tautomer_probability> (1)
0.99999996999482

>  <r_epik_Ionization_Penalty> (1)
  0.0005

>  <r_epik_Ionization_Penalty_Charging> (1)
  0.0000

>  <r_epik_Ionization_Penalty_Neutral> (1)
  0.0005

>  <r_epik_State_Penalty> (1)
  0.0003

>  <r_epik_Charging_Adjusted_Penalty> (1)
0.000319693605640368

>  <i_epik_Tot_Q> (1)
0

>  <i_epik_Tot_abs_Q> (1)
0

>  <s_lp_Force_Field> (1)
S-OPLS

>  <r_lp_Energy> (1)
23.730337

>  <b_lp_Chiralities_Consistent> (1)
1

$$$$
