17725_Tetramethylthiourea
                    3D
 Schrodinger Suite 2021-3.
 20 19  0  0  1  0            999 V2000
   -0.7678   -1.0375    0.7415 C   0  0  0  0  0  0
    0.0214   -0.0966   -0.0570 N   0  0  0  0  0  0
   -0.6936    1.1285   -0.3940 C   0  0  0  0  0  0
    1.3993   -0.0946   -0.0012 C   0  0  0  0  0  0
    2.3099    1.3233   -0.0048 S   0  0  0  0  0  0
    1.9705   -1.3484    0.0578 N   0  0  0  0  0  0
    1.4414   -2.4600   -0.7359 C   0  0  0  0  0  0
    3.3827   -1.4881    0.3922 C   0  0  0  0  0  0
   -0.1135   -1.7376    1.2589 H   0  0  0  0  0  0
   -1.4737   -1.6012    0.1199 H   0  0  0  0  0  0
   -1.3412   -0.4849    1.4968 H   0  0  0  0  0  0
   -0.1871    1.6480   -1.2066 H   0  0  0  0  0  0
   -0.7548    1.8122    0.4627 H   0  0  0  0  0  0
   -1.7060    0.8571   -0.7100 H   0  0  0  0  0  0
    0.5306   -2.1586   -1.2511 H   0  0  0  0  0  0
    1.2253   -3.3348   -0.1111 H   0  0  0  0  0  0
    2.1800   -2.7531   -1.4930 H   0  0  0  0  0  0
    3.6461   -0.8092    1.2024 H   0  0  0  0  0  0
    4.0281   -1.2615   -0.4666 H   0  0  0  0  0  0
    3.5577   -2.5207    0.7105 H   0  0  0  0  0  0
  1  2  1  0  0  0
  1  9  1  0  0  0
  1 10  1  0  0  0
  1 11  1  0  0  0
  2  3  1  0  0  0
  2  4  1  0  0  0
  3 12  1  0  0  0
  3 13  1  0  0  0
  3 14  1  0  0  0
  4  5  2  0  0  0
  4  6  1  0  0  0
  6  7  1  0  0  0
  6  8  1  0  0  0
  7 15  1  0  0  0
  7 16  1  0  0  0
  7 17  1  0  0  0
  8 18  1  0  0  0
  8 19  1  0  0  0
  8 20  1  0  0  0
M  END
>  <i_m_Spin_multiplicity> (1)
1

>  <s_j_Task> (1)
Single Point

>  <s_j_QM_Method> (1)
DFT(b3lyp-d3)

>  <s_j_QM_Basis> (1)
cc-pvtz(-f)

>  <i_j_Number_of_canonical_orbitals> (1)
296

>  <i_j_Geometry_convergence_category> (1)
3

>  <r_j_Gas_Phase_Energy> (1)
-705.593157253343

>  <r_j_Final_Energy> (1)
-705.593157253343

>  <r_j_HOMO> (1)
-0.197200061192699

>  <r_j_LUMO> (1)
-0.0175182541311025

>  <r_j_Polarizability> (1)
100.211148869776

>  <r_j_QM_Dipole_(debye)> (1)
4.66739083795994

>  <r_j_QM_Dipole_X_(debye)> (1)
-2.52250870444647

>  <r_j_QM_Dipole_Y_(debye)> (1)
-3.92700742667775

>  <r_j_QM_Dipole_Z_(debye)> (1)
0.00998704570984692

>  <r_j_Lowest_Frequency_(cm-1)> (1)
88.9113084315927

>  <r_j_Highest_Frequency_(cm-1)> (1)
3108.66929841388

>  <r_j_2nd_Lowest_Frequency_(cm-1)> (1)
140.777949681893

>  <i_j_Num_Negative_Frequencies> (1)
0

>  <r_j_Zero_Point_Energy_(kcal/mol)> (1)
108.833460512713

>  <r_j_Entropy_(cal/mol/K)_298.15K_1.00E+00atm> (1)
93.8520544384871

>  <r_j_Enthalpy_(kcal/mol)_298.15K_1.00E+00atm> (1)
6.64614838551191

>  <r_j_Free_Energy_(kcal/mol)_298.15K_1.00E+00atm> (1)
-21.335841645323

>  <r_j_Internal_Energy_(kcal/mol)_298.15K_1.00E+00atm> (1)
6.05366279668464

>  <r_j_Heat_Capacity_(cal/mol/K)_298.15K_1.00E+00atm> (1)
35.3170264006934

>  <r_j_ln(Q)_298.15K_1.00E+00atm> (1)
36.0107351936673

>  <r_j_Total_Internal_Energy_(au)_298.15K_1.00E+00atm> (1)
-705.410072967285

>  <r_j_Total_Enthalpy_(au)_298.15K_1.00E+00atm> (1)
-705.409128781393

>  <r_j_Total_Free_Energy_(au)_298.15K_1.00E+00atm> (1)
-705.453720921223

>  <r_lp_tautomer_probability> (1)
1

>  <r_epik_Ionization_Penalty> (1)
  0.0000

>  <r_epik_Ionization_Penalty_Charging> (1)
  0.0000

>  <r_epik_Ionization_Penalty_Neutral> (1)
  0.0000

>  <r_epik_State_Penalty> (1)
  0.0000

>  <r_epik_Charging_Adjusted_Penalty> (1)
0

>  <i_epik_Tot_Q> (1)
0

>  <i_epik_Tot_abs_Q> (1)
0

>  <s_lp_Force_Field> (1)
S-OPLS

>  <r_lp_Energy> (1)
27.106754

>  <b_lp_Chiralities_Consistent> (1)
1

$$$$
