17739_Propylgyaiacol
                    3D
 Schrodinger Suite 2021-3.
 26 26  0  0  1  0            999 V2000
   -2.1026    1.4669   -0.0221 C   0  0  0  0  0  0
   -0.5725    1.4207   -0.0424 C   0  0  0  0  0  0
   -0.0149   -0.0066    0.1218 C   0  0  0  0  0  0
    1.4969   -0.0522    0.0902 C   0  0  0  0  0  0
    2.1744   -0.0167   -1.1411 C   0  0  0  0  0  0
    3.5664   -0.0027   -1.2074 C   0  0  0  0  0  0
    4.3158   -0.0238   -0.0092 C   0  0  0  0  0  0
    3.6471   -0.0591    1.2090 C   0  0  0  0  0  0
    2.2492   -0.0726    1.2616 C   0  0  0  0  0  0
    5.6786   -0.0114   -0.1242 O   0  0  0  0  0  0
    4.3002    0.0271   -2.3573 O   0  0  0  0  0  0
    3.6013    0.0553   -3.5897 C   0  0  0  0  0  0
   -2.4745    2.4900   -0.1399 H   0  0  0  0  0  0
   -2.4971    1.0751    0.9227 H   0  0  0  0  0  0
   -2.5268    0.8618   -0.8319 H   0  0  0  0  0  0
   -0.1970    1.8427   -0.9834 H   0  0  0  0  0  0
   -0.1657    2.0530    0.7569 H   0  0  0  0  0  0
   -0.3788   -0.4264    1.0682 H   0  0  0  0  0  0
   -0.4252   -0.6419   -0.6749 H   0  0  0  0  0  0
    1.5913   -0.0027   -2.0553 H   0  0  0  0  0  0
    4.2284   -0.0790    2.1291 H   0  0  0  0  0  0
    1.7503   -0.1008    2.2264 H   0  0  0  0  0  0
    6.0597   -0.0283    0.7632 H   0  0  0  0  0  0
    4.3654    0.0827   -4.3684 H   0  0  0  0  0  0
    2.9649    0.9466   -3.6770 H   0  0  0  0  0  0
    2.9792   -0.8400   -3.7264 H   0  0  0  0  0  0
  1  2  1  0  0  0
  1 13  1  0  0  0
  1 14  1  0  0  0
  1 15  1  0  0  0
  2  3  1  0  0  0
  2 16  1  0  0  0
  2 17  1  0  0  0
  3  4  1  0  0  0
  3 18  1  0  0  0
  3 19  1  0  0  0
  4  9  1  0  0  0
  4  5  2  0  0  0
  5  6  1  0  0  0
  5 20  1  0  0  0
  6  7  2  0  0  0
  6 11  1  0  0  0
  7  8  1  0  0  0
  7 10  1  0  0  0
  8  9  2  0  0  0
  8 21  1  0  0  0
  9 22  1  0  0  0
 10 23  1  0  0  0
 11 12  1  0  0  0
 12 24  1  0  0  0
 12 25  1  0  0  0
 12 26  1  0  0  0
M  END
>  <i_m_Spin_multiplicity> (1)
1

>  <s_j_Task> (1)
Single Point

>  <s_j_QM_Method> (1)
DFT(b3lyp-d3)

>  <s_j_QM_Basis> (1)
cc-pvtz(-f)

>  <i_j_Number_of_canonical_orbitals> (1)
395

>  <i_j_Geometry_convergence_category> (1)
0

>  <r_j_Gas_Phase_Energy> (1)
-540.133602721975

>  <r_j_Final_Energy> (1)
-540.133602721975

>  <r_j_HOMO> (1)
-0.203262908453435

>  <r_j_LUMO> (1)
-0.00181227688262041

>  <r_j_Polarizability> (1)
127.104884760178

>  <r_j_QM_Dipole_(debye)> (1)
0.796940665080701

>  <r_j_QM_Dipole_X_(debye)> (1)
-0.764374131175653

>  <r_j_QM_Dipole_Y_(debye)> (1)
0.106782779208463

>  <r_j_QM_Dipole_Z_(debye)> (1)
0.198605260034201

>  <r_j_Lowest_Frequency_(cm-1)> (1)
68.5656792787458

>  <r_j_Highest_Frequency_(cm-1)> (1)
3772.956827562

>  <r_j_2nd_Lowest_Frequency_(cm-1)> (1)
87.1704297434147

>  <i_j_Num_Negative_Frequencies> (1)
0

>  <r_j_Zero_Point_Energy_(kcal/mol)> (1)
138.89625335048

>  <r_j_Entropy_(cal/mol/K)_298.15K_1.00E+00atm> (1)
105.013949605134

>  <r_j_Enthalpy_(kcal/mol)_298.15K_1.00E+00atm> (1)
7.98113237413286

>  <r_j_Free_Energy_(kcal/mol)_298.15K_1.00E+00atm> (1)
-23.3287767006378

>  <r_j_Internal_Energy_(kcal/mol)_298.15K_1.00E+00atm> (1)
7.38864678530559

>  <r_j_Heat_Capacity_(cal/mol/K)_298.15K_1.00E+00atm> (1)
45.8337042787334

>  <r_j_ln(Q)_298.15K_1.00E+00atm> (1)
39.3744204763076

>  <r_j_Total_Internal_Energy_(au)_298.15K_1.00E+00atm> (1)
-539.900482893304

>  <r_j_Total_Enthalpy_(au)_298.15K_1.00E+00atm> (1)
-539.899538707412

>  <r_j_Total_Free_Energy_(au)_298.15K_1.00E+00atm> (1)
-539.949434223849

>  <r_lp_tautomer_probability> (1)
1

>  <r_epik_Ionization_Penalty> (1)
  0.0004

>  <r_epik_Ionization_Penalty_Charging> (1)
  0.0000

>  <r_epik_Ionization_Penalty_Neutral> (1)
  0.0004

>  <r_epik_State_Penalty> (1)
  0.0003

>  <r_epik_Charging_Adjusted_Penalty> (1)
0.000275476837645506

>  <i_epik_Tot_Q> (1)
0

>  <i_epik_Tot_abs_Q> (1)
0

>  <s_lp_Force_Field> (1)
S-OPLS

>  <r_lp_Energy> (1)
13.810343

>  <b_lp_Chiralities_Consistent> (1)
1

$$$$
