17756_Ethylene glycol propyl ether
                    3D
 Schrodinger Suite 2021-3.
 19 18  0  0  1  0            999 V2000
   -2.0426    1.4673    0.0002 C   0  0  0  0  0  0
   -0.5131    1.3959   -0.0001 C   0  0  0  0  0  0
   -0.0013   -0.0379    0.0000 C   0  0  0  0  0  0
    1.4157   -0.0105   -0.0002 O   0  0  0  0  0  0
    2.0018   -1.2974   -0.0002 C   0  0  0  0  0  0
    3.5106   -1.1130    0.0002 C   0  0  0  0  0  0
    4.0860   -2.4138    0.0001 O   0  0  0  0  0  0
   -2.3895    2.5049    0.0001 H   0  0  0  0  0  0
   -2.4640    0.9761    0.8847 H   0  0  0  0  0  0
   -2.4643    0.9758   -0.8840 H   0  0  0  0  0  0
   -0.1057    1.9085   -0.8793 H   0  0  0  0  0  0
   -0.1054    1.9088    0.8789 H   0  0  0  0  0  0
   -0.3765   -0.5787    0.8872 H   0  0  0  0  0  0
   -0.3768   -0.5790   -0.8868 H   0  0  0  0  0  0
    1.7025   -1.8774    0.8881 H   0  0  0  0  0  0
    1.7029   -1.8772   -0.8888 H   0  0  0  0  0  0
    3.7976   -0.5295   -0.8881 H   0  0  0  0  0  0
    3.7972   -0.5298    0.8887 H   0  0  0  0  0  0
    5.0457   -2.3167    0.0003 H   0  0  0  0  0  0
  1  2  1  0  0  0
  1  8  1  0  0  0
  1  9  1  0  0  0
  1 10  1  0  0  0
  2  3  1  0  0  0
  2 11  1  0  0  0
  2 12  1  0  0  0
  3  4  1  0  0  0
  3 13  1  0  0  0
  3 14  1  0  0  0
  4  5  1  0  0  0
  5  6  1  0  0  0
  5 15  1  0  0  0
  5 16  1  0  0  0
  6  7  1  0  0  0
  6 17  1  0  0  0
  6 18  1  0  0  0
  7 19  1  0  0  0
M  END
>  <i_m_Spin_multiplicity> (1)
1

>  <s_j_Task> (1)
Single Point

>  <s_j_QM_Method> (1)
DFT(b3lyp-d3)

>  <s_j_QM_Basis> (1)
cc-pvtz(-f)

>  <i_j_Number_of_canonical_orbitals> (1)
268

>  <i_j_Geometry_convergence_category> (1)
3

>  <r_j_Gas_Phase_Energy> (1)
-348.326468044584

>  <r_j_Final_Energy> (1)
-348.326468044584

>  <r_j_HOMO> (1)
-0.263337925884508

>  <r_j_LUMO> (1)
0.0197019646881364

>  <r_j_Polarizability> (1)
72.2258038855014

>  <r_j_QM_Dipole_(debye)> (1)
0.514280458705771

>  <r_j_QM_Dipole_X_(debye)> (1)
0.219965690163954

>  <r_j_QM_Dipole_Y_(debye)> (1)
0.464864700552876

>  <r_j_QM_Dipole_Z_(debye)> (1)
0.000543633331580642

>  <r_j_Lowest_Frequency_(cm-1)> (1)
69.534851818566

>  <r_j_Highest_Frequency_(cm-1)> (1)
3785.04389313864

>  <r_j_2nd_Lowest_Frequency_(cm-1)> (1)
118.976893235934

>  <i_j_Num_Negative_Frequencies> (1)
0

>  <r_j_Zero_Point_Energy_(kcal/mol)> (1)
106.450896769174

>  <r_j_Entropy_(cal/mol/K)_298.15K_1.00E+00atm> (1)
90.5185670575601

>  <r_j_Enthalpy_(kcal/mol)_298.15K_1.00E+00atm> (1)
6.13311011242875

>  <r_j_Free_Energy_(kcal/mol)_298.15K_1.00E+00atm> (1)
-20.8550006557828

>  <r_j_Internal_Energy_(kcal/mol)_298.15K_1.00E+00atm> (1)
5.54062452360148

>  <r_j_Heat_Capacity_(cal/mol/K)_298.15K_1.00E+00atm> (1)
30.7633651382767

>  <r_j_ln(Q)_298.15K_1.00E+00atm> (1)
35.1991694803274

>  <r_j_Total_Internal_Energy_(au)_298.15K_1.00E+00atm> (1)
-348.147998194092

>  <r_j_Total_Enthalpy_(au)_298.15K_1.00E+00atm> (1)
-348.1470540082

>  <r_j_Total_Free_Energy_(au)_298.15K_1.00E+00atm> (1)
-348.190062300598

>  <r_lp_tautomer_probability> (1)
1

>  <r_epik_Ionization_Penalty> (1)
  0.0000

>  <r_epik_Ionization_Penalty_Charging> (1)
  0.0000

>  <r_epik_Ionization_Penalty_Neutral> (1)
  0.0000

>  <r_epik_State_Penalty> (1)
  0.0000

>  <r_epik_Charging_Adjusted_Penalty> (1)
0

>  <i_epik_Tot_Q> (1)
0

>  <i_epik_Tot_abs_Q> (1)
0

>  <s_lp_Force_Field> (1)
S-OPLS

>  <r_lp_Energy> (1)
4.147852

>  <b_lp_Chiralities_Consistent> (1)
1

$$$$
