177691_Butoxy propanol
                    3D
 Schrodinger Suite 2021-3.
 25 24  0  0  1  0            999 V2000
    0.4375   -2.0074    1.1330 O   0  0  0  0  0  0
   -0.2636   -0.7760    1.2584 C   0  0  0  0  0  0
   -0.0096    0.0480    0.0036 C   0  0  0  0  0  0
    1.3543    0.4410    0.0528 O   0  0  0  0  0  0
    1.9845    0.7142   -1.1914 C   0  0  0  0  0  0
    3.4631    0.3708   -1.0454 C   0  0  0  0  0  0
    3.6892   -1.1243   -0.7882 C   0  0  0  0  0  0
    5.1522   -1.4644   -0.4944 C   0  0  0  0  0  0
   -0.9343    1.2639   -0.0873 C   0  0  0  0  0  0
    0.4956   -2.4122    2.0065 H   0  0  0  0  0  0
   -1.3477   -0.9415    1.3704 H   0  0  0  0  0  0
    0.0826   -0.1916    2.1245 H   0  0  0  0  0  0
   -0.1752   -0.6123   -0.8637 H   0  0  0  0  0  0
    1.5343    0.1029   -1.9910 H   0  0  0  0  0  0
    1.8504    1.7712   -1.4718 H   0  0  0  0  0  0
    3.9971    0.6916   -1.9504 H   0  0  0  0  0  0
    3.8713    0.9582   -0.2124 H   0  0  0  0  0  0
    3.0469   -1.4327    0.0437 H   0  0  0  0  0  0
    3.3468   -1.6922   -1.6648 H   0  0  0  0  0  0
    5.2877   -2.5375   -0.3226 H   0  0  0  0  0  0
    5.5067   -0.9372    0.3992 H   0  0  0  0  0  0
    5.8052   -1.1756   -1.3268 H   0  0  0  0  0  0
   -1.9860    0.9644   -0.1428 H   0  0  0  0  0  0
   -0.7023    1.8520   -0.9799 H   0  0  0  0  0  0
   -0.7970    1.9091    0.7867 H   0  0  0  0  0  0
  1  2  1  0  0  0
  1 10  1  0  0  0
  2  3  1  0  0  0
  2 11  1  0  0  0
  2 12  1  0  0  0
  3  4  1  0  0  0
  3  9  1  0  0  0
  3 13  1  0  0  0
  4  5  1  0  0  0
  5  6  1  0  0  0
  5 14  1  0  0  0
  5 15  1  0  0  0
  6  7  1  0  0  0
  6 16  1  0  0  0
  6 17  1  0  0  0
  7  8  1  0  0  0
  7 18  1  0  0  0
  7 19  1  0  0  0
  8 20  1  0  0  0
  8 21  1  0  0  0
  8 22  1  0  0  0
  9 23  1  0  0  0
  9 24  1  0  0  0
  9 25  1  0  0  0
M  END
>  <i_m_Spin_multiplicity> (1)
1

>  <s_j_Task> (1)
Single Point

>  <s_j_QM_Method> (1)
DFT(b3lyp-d3)

>  <s_j_QM_Basis> (1)
cc-pvtz(-f)

>  <i_j_Number_of_canonical_orbitals> (1)
350

>  <i_j_Geometry_convergence_category> (1)
3

>  <r_j_Gas_Phase_Energy> (1)
-426.989391791527

>  <r_j_Final_Energy> (1)
-426.989391791527

>  <r_j_HOMO> (1)
-0.24914674718941

>  <r_j_LUMO> (1)
0.0121315349158739

>  <r_j_Polarizability> (1)
96.0507926641071

>  <r_j_QM_Dipole_(debye)> (1)
1.38595356589698

>  <r_j_QM_Dipole_X_(debye)> (1)
-1.25719073634559

>  <r_j_QM_Dipole_Y_(debye)> (1)
0.29798324482206

>  <r_j_QM_Dipole_Z_(debye)> (1)
0.501542346242758

>  <r_j_Lowest_Frequency_(cm-1)> (1)
41.6891685727013

>  <r_j_Highest_Frequency_(cm-1)> (1)
3787.65098844661

>  <r_j_2nd_Lowest_Frequency_(cm-1)> (1)
64.8261762706

>  <i_j_Num_Negative_Frequencies> (1)
0

>  <r_j_Zero_Point_Energy_(kcal/mol)> (1)
141.878034135595

>  <r_j_Entropy_(cal/mol/K)_298.15K_1.00E+00atm> (1)
100.661951482866

>  <r_j_Enthalpy_(kcal/mol)_298.15K_1.00E+00atm> (1)
7.50502750430746

>  <r_j_Free_Energy_(kcal/mol)_298.15K_1.00E+00atm> (1)
-22.507333330309

>  <r_j_Internal_Energy_(kcal/mol)_298.15K_1.00E+00atm> (1)
6.91254191548018

>  <r_j_Heat_Capacity_(cal/mol/K)_298.15K_1.00E+00atm> (1)
40.8824229641436

>  <r_j_ln(Q)_298.15K_1.00E+00atm> (1)
37.9879844417119

>  <r_j_Total_Internal_Energy_(au)_298.15K_1.00E+00atm> (1)
-426.75227891409

>  <r_j_Total_Enthalpy_(au)_298.15K_1.00E+00atm> (1)
-426.751334728198

>  <r_j_Total_Free_Energy_(au)_298.15K_1.00E+00atm> (1)
-426.79916246988

>  <r_lp_tautomer_probability> (1)
1

>  <r_epik_Ionization_Penalty> (1)
  0.0000

>  <r_epik_Ionization_Penalty_Charging> (1)
  0.0000

>  <r_epik_Ionization_Penalty_Neutral> (1)
  0.0000

>  <r_epik_State_Penalty> (1)
  0.0000

>  <r_epik_Charging_Adjusted_Penalty> (1)
0

>  <i_epik_Tot_Q> (1)
0

>  <i_epik_Tot_abs_Q> (1)
0

>  <s_lp_Force_Field> (1)
S-OPLS

>  <r_lp_Energy> (1)
0.996826

>  <b_lp_Chiralities_Consistent> (1)
1

$$$$
