17779_1,2,4-trimethylcyclopentane
                    3D
 Schrodinger Suite 2021-3.
 24 24  0  0  1  0            999 V2000
   -0.0323    0.1567    0.0676 C   0  0  0  0  0  0
    1.4871   -0.0166   -0.0035 C   0  0  1  0  0  0
    2.1207    0.6730   -1.2379 C   0  0  0  0  0  0
    3.4881    1.1875   -0.7565 C   0  0  2  0  0  0
    3.1903    1.6807    0.6843 C   0  0  2  0  0  0
    2.2430    0.5819    1.2283 C   0  0  0  0  0  0
    2.5444    3.0736    0.7409 C   0  0  0  0  0  0
    4.1554    2.1946   -1.6922 C   0  0  0  0  0  0
   -0.2972    1.2180    0.1479 H   0  0  0  0  0  0
   -0.4539   -0.3580    0.9382 H   0  0  0  0  0  0
   -0.5221   -0.2423   -0.8280 H   0  0  0  0  0  0
    1.7024   -1.0912   -0.0563 H   0  0  0  0  0  0
    2.2011    0.0036   -2.1012 H   0  0  0  0  0  0
    1.5002    1.5216   -1.5572 H   0  0  0  0  0  0
    4.1555    0.3176   -0.6594 H   0  0  0  0  0  0
    4.1191    1.7185    1.2679 H   0  0  0  0  0  0
    1.5485    0.9798    1.9772 H   0  0  0  0  0  0
    2.8244   -0.2010    1.7275 H   0  0  0  0  0  0
    1.6156    3.1153    0.1615 H   0  0  0  0  0  0
    3.2133    3.8492    0.3548 H   0  0  0  0  0  0
    2.2954    3.3345    1.7750 H   0  0  0  0  0  0
    3.5032    3.0528   -1.8861 H   0  0  0  0  0  0
    4.3889    1.7349   -2.6586 H   0  0  0  0  0  0
    5.0921    2.5748   -1.2688 H   0  0  0  0  0  0
  1  2  1  0  0  0
  1  9  1  0  0  0
  1 10  1  0  0  0
  1 11  1  0  0  0
  2  6  1  0  0  0
  2  3  1  0  0  0
  2 12  1  0  0  0
  3  4  1  0  0  0
  3 13  1  0  0  0
  3 14  1  0  0  0
  4  5  1  0  0  0
  4  8  1  0  0  0
  4 15  1  0  0  0
  5  6  1  0  0  0
  5  7  1  0  0  0
  5 16  1  0  0  0
  6 17  1  0  0  0
  6 18  1  0  0  0
  7 19  1  0  0  0
  7 20  1  0  0  0
  7 21  1  0  0  0
  8 22  1  0  0  0
  8 23  1  0  0  0
  8 24  1  0  0  0
M  END
> <i_m_Spin_multiplicity>
1

> <s_j_Task>
Single Point

> <s_j_QM_Method>
DFT(b3lyp-d3)

> <s_j_QM_Basis>
cc-pvtz(-f)

> <i_j_Number_of_canonical_orbitals>
325

> <i_j_Geometry_convergence_category>
3

> <r_j_Gas_Phase_Energy>
-314.624551473113

> <r_j_Final_Energy>
-314.624551473113

> <r_j_HOMO>
-0.294631777836944

> <r_j_LUMO>
0.0294527669108509

> <r_j_Polarizability>
92.7982396470113

> <r_j_QM_Dipole_(debye)>
0.242417666953784

> <r_j_QM_Dipole_X_(debye)>
0.174358237003569

> <r_j_QM_Dipole_Y_(debye)>
-0.167229108330853

> <r_j_QM_Dipole_Z_(debye)>
0.019998894149203

> <r_j_Lowest_Frequency_(cm-1)>
76.2296570204028

> <r_j_Highest_Frequency_(cm-1)>
3052.95952064377

> <r_j_2nd_Lowest_Frequency_(cm-1)>
165.825319971344

> <i_j_Num_Negative_Frequencies>
0

> <r_j_Zero_Point_Energy_(kcal/mol)>
140.815230416498

> <r_j_Entropy_(cal/mol/K)_298.15K_1.00E+00atm>
87.8037090864471

> <r_j_Enthalpy_(kcal/mol)_298.15K_1.00E+00atm>
5.9430390007719

> <r_j_Free_Energy_(kcal/mol)_298.15K_1.00E+00atm>
-20.2356368633523

> <r_j_Internal_Energy_(kcal/mol)_298.15K_1.00E+00atm>
5.35055341194462

> <r_j_Heat_Capacity_(cal/mol/K)_298.15K_1.00E+00atm>
34.3705149361781

> <r_j_ln(Q)_298.15K_1.00E+00atm>
34.153804320212

> <r_j_Total_Internal_Energy_(au)_298.15K_1.00E+00atm>
-314.391621468362

> <r_j_Total_Enthalpy_(au)_298.15K_1.00E+00atm>
-314.390677282469

> <r_j_Total_Free_Energy_(au)_298.15K_1.00E+00atm>
-314.432395658232

> <r_lp_tautomer_probability>
1

> <r_epik_Ionization_Penalty>
  0.0000

> <r_epik_Ionization_Penalty_Charging>
  0.0000

> <r_epik_Ionization_Penalty_Neutral>
  0.0000

> <r_epik_State_Penalty>
  0.0000

> <r_epik_Charging_Adjusted_Penalty>
0

> <i_epik_Tot_Q>
0

> <i_epik_Tot_abs_Q>
0

> <s_lp_Force_Field>
S-OPLS

> <r_lp_Energy>
1.73629

> <b_lp_Chiralities_Consistent>
1

$$$$
