177_Acetaldehyde
                    3D
 Schrodinger Suite 2021-3.
  7  6  0  0  1  0            999 V2000
   -0.0006    0.0081    0.0000 C   0  0  0  0  0  0
    1.5143   -0.0144    0.0000 C   0  0  0  0  0  0
    2.1633   -1.0366    0.0000 O   0  0  0  0  0  0
   -0.3985    1.0257    0.0000 H   0  0  0  0  0  0
   -0.3691   -0.5276    0.8813 H   0  0  0  0  0  0
   -0.3691   -0.5276   -0.8813 H   0  0  0  0  0  0
    2.0201    0.9781    0.0000 H   0  0  0  0  0  0
  1  2  1  0  0  0
  1  4  1  0  0  0
  1  5  1  0  0  0
  1  6  1  0  0  0
  2  3  2  0  0  0
  2  7  1  0  0  0
M  END
>  <i_m_Spin_multiplicity> (1)
1

>  <s_j_Task> (1)
Single Point

>  <s_j_QM_Method> (1)
DFT(b3lyp-d3)

>  <s_j_QM_Basis> (1)
cc-pvtz(-f)

>  <i_j_Number_of_canonical_orbitals> (1)
105

>  <i_j_Geometry_convergence_category> (1)
0

>  <r_j_Gas_Phase_Energy> (1)
-153.889387775834

>  <r_j_Final_Energy> (1)
-153.889387775834

>  <r_j_HOMO> (1)
-0.266970483327173

>  <r_j_LUMO> (1)
-0.0431370421471711

>  <r_j_Polarizability> (1)
27.7243426817973

>  <r_j_QM_Dipole_(debye)> (1)
2.63406016428825

>  <r_j_QM_Dipole_X_(debye)> (1)
-1.85144455108266

>  <r_j_QM_Dipole_Y_(debye)> (1)
1.87361309329236

>  <r_j_QM_Dipole_Z_(debye)> (1)
5.57329958965657e-08

>  <r_j_Lowest_Frequency_(cm-1)> (1)
-29.0262495104284

>  <r_j_Highest_Frequency_(cm-1)> (1)
3084.39448420819

>  <r_j_2nd_Lowest_Frequency_(cm-1)> (1)
520.739286964958

>  <i_j_Num_Negative_Frequencies> (1)
1

>  <r_j_Zero_Point_Energy_(kcal/mol)> (1)
34.2616230412421

>  <r_j_Entropy_(cal/mol/K)_298.15K_1.00E+00atm> (1)
60.0904093287992

>  <r_j_Enthalpy_(kcal/mol)_298.15K_1.00E+00atm> (1)
2.63345551634344

>  <r_j_Free_Energy_(kcal/mol)_298.15K_1.00E+00atm> (1)
-15.282500025038

>  <r_j_Internal_Energy_(kcal/mol)_298.15K_1.00E+00atm> (1)
2.04096992751617

>  <r_j_Heat_Capacity_(cal/mol/K)_298.15K_1.00E+00atm> (1)
9.2667729236926

>  <r_j_ln(Q)_298.15K_1.00E+00atm> (1)
25.7938763629461

>  <r_j_Total_Internal_Energy_(au)_298.15K_1.00E+00atm> (1)
-153.831535911114

>  <r_j_Total_Enthalpy_(au)_298.15K_1.00E+00atm> (1)
-153.830591725222

>  <r_j_Total_Free_Energy_(au)_298.15K_1.00E+00atm> (1)
-153.859142617914

>  <r_lp_tautomer_probability> (1)
1

>  <r_epik_Ionization_Penalty> (1)
  0.0000

>  <r_epik_Ionization_Penalty_Charging> (1)
  0.0000

>  <r_epik_Ionization_Penalty_Neutral> (1)
  0.0000

>  <r_epik_State_Penalty> (1)
  0.0000

>  <r_epik_Charging_Adjusted_Penalty> (1)
0

>  <i_epik_Tot_Q> (1)
0

>  <i_epik_Tot_abs_Q> (1)
0

>  <s_lp_Force_Field> (1)
S-OPLS

>  <r_lp_Energy> (1)
0.468623

>  <b_lp_Chiralities_Consistent> (1)
1

$$$$
