17835_4-methyldecane
                    3D
 Schrodinger Suite 2021-3.
 35 34  0  0  1  0            999 V2000
   -4.2238    3.0052   -0.0734 C   0  0  0  0  0  0
   -2.6935    2.9456   -0.0488 C   0  0  0  0  0  0
   -2.1489    1.5144    0.0272 C   0  0  0  0  0  0
   -0.6180    1.4464    0.0488 C   0  0  0  0  0  0
   -0.0699    0.0159    0.1126 C   0  0  0  0  0  0
    1.4635   -0.0328    0.1399 C   0  0  0  0  0  0
    2.0770   -1.4439    0.0503 C   0  0  0  0  0  0
    1.6392   -2.3324    1.2250 C   0  0  0  0  0  0
    3.6166   -1.3959   -0.0248 C   0  0  0  0  0  0
    4.1982   -0.7162   -1.2716 C   0  0  0  0  0  0
    5.7259   -0.8145   -1.3350 C   0  0  0  0  0  0
   -4.5865    4.0369   -0.1288 H   0  0  0  0  0  0
   -4.6504    2.5493    0.8275 H   0  0  0  0  0  0
   -4.6251    2.4634   -0.9377 H   0  0  0  0  0  0
   -2.2916    3.4372   -0.9454 H   0  0  0  0  0  0
   -2.3161    3.5215    0.8072 H   0  0  0  0  0  0
   -2.5490    1.0209    0.9248 H   0  0  0  0  0  0
   -2.5270    0.9366   -0.8286 H   0  0  0  0  0  0
   -0.2202    1.9485   -0.8449 H   0  0  0  0  0  0
   -0.2409    2.0183    0.9089 H   0  0  0  0  0  0
   -0.4820   -0.4831    0.9987 H   0  0  0  0  0  0
   -0.4358   -0.5520   -0.7552 H   0  0  0  0  0  0
    1.8370    0.5751   -0.6934 H   0  0  0  0  0  0
    1.8272    0.4542    1.0574 H   0  0  0  0  0  0
    1.7130   -1.9081   -0.8802 H   0  0  0  0  0  0
    1.9438   -1.8872    2.1805 H   0  0  0  0  0  0
    2.0986   -3.3247    1.1599 H   0  0  0  0  0  0
    0.5548   -2.4727    1.2537 H   0  0  0  0  0  0
    4.0032   -0.8960    0.8762 H   0  0  0  0  0  0
    3.9988   -2.4257    0.0170 H   0  0  0  0  0  0
    3.7618   -1.1761   -2.1691 H   0  0  0  0  0  0
    3.9065    0.3404   -1.2979 H   0  0  0  0  0  0
    6.1241   -0.3238   -2.2292 H   0  0  0  0  0  0
    6.0545   -1.8601   -1.3528 H   0  0  0  0  0  0
    6.1869   -0.3399   -0.4610 H   0  0  0  0  0  0
  1  2  1  0  0  0
  1 12  1  0  0  0
  1 13  1  0  0  0
  1 14  1  0  0  0
  2  3  1  0  0  0
  2 15  1  0  0  0
  2 16  1  0  0  0
  3  4  1  0  0  0
  3 17  1  0  0  0
  3 18  1  0  0  0
  4  5  1  0  0  0
  4 19  1  0  0  0
  4 20  1  0  0  0
  5  6  1  0  0  0
  5 21  1  0  0  0
  5 22  1  0  0  0
  6  7  1  0  0  0
  6 23  1  0  0  0
  6 24  1  0  0  0
  7  8  1  0  0  0
  7  9  1  0  0  0
  7 25  1  0  0  0
  8 26  1  0  0  0
  8 27  1  0  0  0
  8 28  1  0  0  0
  9 10  1  0  0  0
  9 29  1  0  0  0
  9 30  1  0  0  0
 10 11  1  0  0  0
 10 31  1  0  0  0
 10 32  1  0  0  0
 11 33  1  0  0  0
 11 34  1  0  0  0
 11 35  1  0  0  0
M  END
>  <i_m_Spin_multiplicity> (1)
1

>  <s_j_Task> (1)
Single Point

>  <s_j_QM_Method> (1)
DFT(b3lyp-d3)

>  <s_j_QM_Basis> (1)
cc-pvtz(-f)

>  <i_j_Number_of_canonical_orbitals> (1)
466

>  <i_j_Geometry_convergence_category> (1)
0

>  <r_j_Gas_Phase_Energy> (1)
-433.828829594476

>  <r_j_Final_Energy> (1)
-433.828829594476

>  <r_j_HOMO> (1)
-0.295468612692766

>  <r_j_LUMO> (1)
0.0273336136135826

>  <r_j_Polarizability> (1)
137.187950499909

>  <r_j_QM_Dipole_(debye)> (1)
0.109488943925532

>  <r_j_QM_Dipole_X_(debye)> (1)
-0.0162357343886547

>  <r_j_QM_Dipole_Y_(debye)> (1)
0.0419482527990463

>  <r_j_QM_Dipole_Z_(debye)> (1)
-0.0998227121345474

>  <r_j_Lowest_Frequency_(cm-1)> (1)
59.3485294733539

>  <r_j_Highest_Frequency_(cm-1)> (1)
3055.7023159906

>  <r_j_2nd_Lowest_Frequency_(cm-1)> (1)
78.2758389766519

>  <i_j_Num_Negative_Frequencies> (1)
0

>  <r_j_Zero_Point_Energy_(kcal/mol)> (1)
207.518662813726

>  <r_j_Entropy_(cal/mol/K)_298.15K_1.00E+00atm> (1)
114.752137826593

>  <r_j_Enthalpy_(kcal/mol)_298.15K_1.00E+00atm> (1)
9.35204588831824

>  <r_j_Free_Energy_(kcal/mol)_298.15K_1.00E+00atm> (1)
-24.8613040046806

>  <r_j_Internal_Energy_(kcal/mol)_298.15K_1.00E+00atm> (1)
8.75956029949096

>  <r_j_Heat_Capacity_(cal/mol/K)_298.15K_1.00E+00atm> (1)
52.9537011912746

>  <r_j_ln(Q)_298.15K_1.00E+00atm> (1)
41.9610273625209

>  <r_j_Total_Internal_Energy_(au)_298.15K_1.00E+00atm> (1)
-433.48416830496

>  <r_j_Total_Enthalpy_(au)_298.15K_1.00E+00atm> (1)
-433.483224119068

>  <r_j_Total_Free_Energy_(au)_298.15K_1.00E+00atm> (1)
-433.537746562997

>  <r_lp_tautomer_probability> (1)
1

>  <r_epik_Ionization_Penalty> (1)
  0.0000

>  <r_epik_Ionization_Penalty_Charging> (1)
  0.0000

>  <r_epik_Ionization_Penalty_Neutral> (1)
  0.0000

>  <r_epik_State_Penalty> (1)
  0.0000

>  <r_epik_Charging_Adjusted_Penalty> (1)
0

>  <i_epik_Tot_Q> (1)
0

>  <i_epik_Tot_abs_Q> (1)
0

>  <s_lp_Force_Field> (1)
S-OPLS

>  <r_lp_Energy> (1)
5.76542

>  <b_lp_Chiralities_Consistent> (1)
1

$$$$
