17857_Isophorone diamine
                    3D
 Schrodinger Suite 2021-3.
 36 36  0  0  1  0            999 V2000
    1.3520   -0.0109   -3.0907 C   0  0  0  0  0  0
   -0.1320   -0.0258   -2.6674 C   0  0  0  0  0  0
   -0.6741    1.4177   -2.5016 C   0  0  0  0  0  0
   -0.0915    2.1092   -1.2691 C   0  0  0  0  0  0
   -0.3660    1.3434    0.0346 C   0  0  0  0  0  0
    0.0871   -0.1488   -0.0092 C   0  0  0  0  0  0
   -0.3911   -0.7925   -1.3463 C   0  0  0  0  0  0
   -0.5957   -0.9056    1.1540 C   0  0  0  0  0  0
    1.6266   -0.3065    0.1122 C   0  0  0  0  0  0
    2.1441   -0.2604    1.5555 N   0  3  1  0  0  0
   -0.7202    3.5117   -1.1627 N   0  3  1  0  0  0
   -0.9378   -0.7206   -3.7844 C   0  0  0  0  0  0
    1.4554    0.4066   -4.0961 H   0  0  0  0  0  0
    1.7539   -1.0280   -3.1222 H   0  0  0  0  0  0
    2.0018    0.5836   -2.4401 H   0  0  0  0  0  0
   -0.4534    1.9987   -3.4052 H   0  0  0  0  0  0
   -1.7675    1.3735   -2.3974 H   0  0  0  0  0  0
    0.9756    2.3087   -1.4016 H   0  0  0  0  0  0
    0.0838    1.8681    0.8902 H   0  0  0  0  0  0
   -1.4488    1.3401    0.2133 H   0  0  0  0  0  0
   -1.4762   -0.9153   -1.2500 H   0  0  0  0  0  0
    0.0141   -1.8077   -1.4255 H   0  0  0  0  0  0
   -0.2640   -1.9493    1.2002 H   0  0  0  0  0  0
   -1.6780   -0.9297    1.0099 H   0  0  0  0  0  0
   -0.4303   -0.4327    2.1302 H   0  0  0  0  0  0
    1.9429   -1.2805   -0.2652 H   0  0  0  0  0  0
    2.1913    0.4603   -0.4166 H   0  0  0  0  0  0
    3.1676   -0.3439    1.5776 H   0  0  0  0  0  0
    1.7629   -1.0333    2.1132 H   0  0  0  0  0  0
   -1.7413    3.4495   -1.0639 H   0  0  0  0  0  0
   -0.5354    4.0596   -2.0124 H   0  0  0  0  0  0
   -2.0049   -0.7680   -3.5452 H   0  0  0  0  0  0
   -0.5814   -1.7436   -3.9351 H   0  0  0  0  0  0
   -0.8264   -0.1891   -4.7341 H   0  0  0  0  0  0
   -0.3651    4.0512   -0.3644 H   0  0  0  0  0  0
    1.8972    0.6097    2.0380 H   0  0  0  0  0  0
  1  2  1  0  0  0
  1 13  1  0  0  0
  1 14  1  0  0  0
  1 15  1  0  0  0
  2  7  1  0  0  0
  2  3  1  0  0  0
  2 12  1  0  0  0
  3  4  1  0  0  0
  3 16  1  0  0  0
  3 17  1  0  0  0
  4  5  1  0  0  0
  4 11  1  0  0  0
  4 18  1  0  0  0
  5  6  1  0  0  0
  5 19  1  0  0  0
  5 20  1  0  0  0
  6  7  1  0  0  0
  6  8  1  0  0  0
  6  9  1  0  0  0
  7 21  1  0  0  0
  7 22  1  0  0  0
  8 23  1  0  0  0
  8 24  1  0  0  0
  8 25  1  0  0  0
  9 10  1  0  0  0
  9 26  1  0  0  0
  9 27  1  0  0  0
 10 28  1  0  0  0
 10 29  1  0  0  0
 10 36  1  0  0  0
 11 30  1  0  0  0
 11 31  1  0  0  0
 11 35  1  0  0  0
 12 32  1  0  0  0
 12 33  1  0  0  0
 12 34  1  0  0  0
M  END
>  <i_m_Spin_multiplicity> (1)
1

>  <s_j_Task> (1)
Single Point

>  <s_j_QM_Method> (1)
DFT(b3lyp-d3)

>  <s_j_QM_Basis> (1)
cc-pvtz(-f)

>  <i_j_Number_of_canonical_orbitals> (1)
487

>  <i_j_Geometry_convergence_category> (1)
0

>  <r_j_Gas_Phase_Energy> (1)
-504.669760005705

>  <r_j_Final_Energy> (1)
-504.669760005705

>  <r_j_HOMO> (1)
-0.545975952683469

>  <r_j_LUMO> (1)
-0.290996808721208

>  <r_j_Polarizability> (1)
124.647401874801

>  <r_j_QM_Dipole_(debye)> (1)
11.3368864153722

>  <r_j_QM_Dipole_X_(debye)> (1)
3.72481069414981

>  <r_j_QM_Dipole_Y_(debye)> (1)
6.98738878346447

>  <r_j_QM_Dipole_Z_(debye)> (1)
8.11339490450902

>  <r_j_Lowest_Frequency_(cm-1)> (1)
99.6478014913885

>  <r_j_Highest_Frequency_(cm-1)> (1)
3437.77716608477

>  <r_j_2nd_Lowest_Frequency_(cm-1)> (1)
142.079441656563

>  <i_j_Num_Negative_Frequencies> (1)
0

>  <r_j_Zero_Point_Energy_(kcal/mol)> (1)
216.945657303073

>  <r_j_Entropy_(cal/mol/K)_298.15K_1.00E+00atm> (1)
108.177334990604

>  <r_j_Enthalpy_(kcal/mol)_298.15K_1.00E+00atm> (1)
8.91957089612202

>  <r_j_Free_Energy_(kcal/mol)_298.15K_1.00E+00atm> (1)
-23.3335015313267

>  <r_j_Internal_Energy_(kcal/mol)_298.15K_1.00E+00atm> (1)
8.32708530729475

>  <r_j_Heat_Capacity_(cal/mol/K)_298.15K_1.00E+00atm> (1)
55.1849559489233

>  <r_j_ln(Q)_298.15K_1.00E+00atm> (1)
39.382395068058

>  <r_j_Total_Internal_Energy_(au)_298.15K_1.00E+00atm> (1)
-504.310765036896

>  <r_j_Total_Enthalpy_(au)_298.15K_1.00E+00atm> (1)
-504.309820851003

>  <r_j_Total_Free_Energy_(au)_298.15K_1.00E+00atm> (1)
-504.361219393925

>  <r_lp_tautomer_probability> (1)
1

>  <r_epik_Ionization_Penalty> (1)
  0.0013

>  <r_epik_Ionization_Penalty_Charging> (1)
  0.0013

>  <r_epik_Ionization_Penalty_Neutral> (1)
  0.0000

>  <r_epik_State_Penalty> (1)
  0.0000

>  <r_epik_Charging_Adjusted_Penalty> (1)
0.00126137

>  <i_epik_Tot_Q> (1)
2

>  <i_epik_Tot_abs_Q> (1)
2

>  <s_lp_Force_Field> (1)
S-OPLS

>  <r_lp_Energy> (1)
45.9768

>  <b_lp_Chiralities_Consistent> (1)
1

$$$$
