17900_N-Nonylcyclohexane
                    3D
 Schrodinger Suite 2021-3.
 45 45  0  0  1  0            999 V2000
   -0.7499    4.6922   -2.3593 C   0  0  0  0  0  0
   -1.0018    3.8065   -1.1353 C   0  0  0  0  0  0
   -0.3187    2.4370   -1.2329 C   0  0  0  0  0  0
   -0.5707    1.5511   -0.0059 C   0  0  0  0  0  0
    0.0244    0.1377   -0.1023 C   0  0  0  0  0  0
    1.5576    0.0914   -0.1507 C   0  0  0  0  0  0
    2.1144   -1.3370   -0.1360 C   0  0  0  0  0  0
    3.6460   -1.3981   -0.1778 C   0  0  0  0  0  0
    4.1864   -2.8337   -0.1496 C   0  0  0  0  0  0
    5.7176   -2.9581   -0.0764 C   0  0  0  0  0  0
    6.1383   -4.4225    0.1556 C   0  0  0  0  0  0
    7.6629   -4.5881    0.2371 C   0  0  0  0  0  0
    8.3511   -4.0269   -1.0155 C   0  0  0  0  0  0
    7.9517   -2.5631   -1.2509 C   0  0  0  0  0  0
    6.4254   -2.3994   -1.3265 C   0  0  0  0  0  0
   -1.2484    5.6626   -2.2643 H   0  0  0  0  0  0
   -1.1204    4.2149   -3.2739 H   0  0  0  0  0  0
    0.3214    4.8794   -2.4968 H   0  0  0  0  0  0
   -0.6505    4.3209   -0.2303 H   0  0  0  0  0  0
   -2.0827    3.6625   -1.0013 H   0  0  0  0  0  0
   -0.6740    1.9169   -2.1347 H   0  0  0  0  0  0
    0.7599    2.5863   -1.3739 H   0  0  0  0  0  0
   -0.1724    2.0514    0.8887 H   0  0  0  0  0  0
   -1.6549    1.4690    0.1513 H   0  0  0  0  0  0
   -0.3174   -0.4495    0.7610 H   0  0  0  0  0  0
   -0.3809   -0.3672   -0.9910 H   0  0  0  0  0  0
    1.9210    0.6084   -1.0484 H   0  0  0  0  0  0
    1.9631    0.6486    0.7064 H   0  0  0  0  0  0
    1.7548   -1.8570    0.7636 H   0  0  0  0  0  0
    1.7054   -1.8952   -0.9905 H   0  0  0  0  0  0
    3.9990   -0.8783   -1.0777 H   0  0  0  0  0  0
    4.0552   -0.8399    0.6768 H   0  0  0  0  0  0
    3.7527   -3.3529    0.7171 H   0  0  0  0  0  0
    3.8257   -3.3761   -1.0363 H   0  0  0  0  0  0
    6.0631   -2.3725    0.7914 H   0  0  0  0  0  0
    5.6657   -4.8044    1.0696 H   0  0  0  0  0  0
    5.7522   -5.0350   -0.6731 H   0  0  0  0  0  0
    8.0363   -4.0543    1.1228 H   0  0  0  0  0  0
    7.9227   -5.6444    0.3766 H   0  0  0  0  0  0
    9.4405   -4.1175   -0.9279 H   0  0  0  0  0  0
    8.0546   -4.6262   -1.8884 H   0  0  0  0  0  0
    8.3380   -1.9481   -0.4254 H   0  0  0  0  0  0
    8.4179   -2.1822   -2.1676 H   0  0  0  0  0  0
    6.0462   -2.9329   -2.2114 H   0  0  0  0  0  0
    6.1740   -1.3424   -1.4687 H   0  0  0  0  0  0
  1  2  1  0  0  0
  1 16  1  0  0  0
  1 17  1  0  0  0
  1 18  1  0  0  0
  2  3  1  0  0  0
  2 19  1  0  0  0
  2 20  1  0  0  0
  3  4  1  0  0  0
  3 21  1  0  0  0
  3 22  1  0  0  0
  4  5  1  0  0  0
  4 23  1  0  0  0
  4 24  1  0  0  0
  5  6  1  0  0  0
  5 25  1  0  0  0
  5 26  1  0  0  0
  6  7  1  0  0  0
  6 27  1  0  0  0
  6 28  1  0  0  0
  7  8  1  0  0  0
  7 29  1  0  0  0
  7 30  1  0  0  0
  8  9  1  0  0  0
  8 31  1  0  0  0
  8 32  1  0  0  0
  9 10  1  0  0  0
  9 33  1  0  0  0
  9 34  1  0  0  0
 10 15  1  0  0  0
 10 11  1  0  0  0
 10 35  1  0  0  0
 11 12  1  0  0  0
 11 36  1  0  0  0
 11 37  1  0  0  0
 12 13  1  0  0  0
 12 38  1  0  0  0
 12 39  1  0  0  0
 13 14  1  0  0  0
 13 40  1  0  0  0
 13 41  1  0  0  0
 14 15  1  0  0  0
 14 42  1  0  0  0
 14 43  1  0  0  0
 15 44  1  0  0  0
 15 45  1  0  0  0
M  END
>  <i_m_Spin_multiplicity> (1)
1

>  <s_j_Task> (1)
Single Point

>  <s_j_QM_Method> (1)
DFT(b3lyp-d3)

>  <s_j_QM_Basis> (1)
cc-pvtz(-f)

>  <i_j_Number_of_canonical_orbitals> (1)
610

>  <i_j_Geometry_convergence_category> (1)
3

>  <r_j_Gas_Phase_Energy> (1)
-589.937900219252

>  <r_j_Final_Energy> (1)
-589.937900219252

>  <r_j_HOMO> (1)
-0.291859156169524

>  <r_j_LUMO> (1)
0.016490674651737

>  <r_j_Polarizability> (1)
181.062756803882

>  <r_j_QM_Dipole_(debye)> (1)
0.079038993387418

>  <r_j_QM_Dipole_X_(debye)> (1)
0.0249393875005547

>  <r_j_QM_Dipole_Y_(debye)> (1)
0.0177592077821411

>  <r_j_QM_Dipole_Z_(debye)> (1)
0.0728683742493561

>  <r_j_Lowest_Frequency_(cm-1)> (1)
43.4233225813842

>  <r_j_Highest_Frequency_(cm-1)> (1)
3045.31608369981

>  <r_j_2nd_Lowest_Frequency_(cm-1)> (1)
65.6618904658806

>  <i_j_Num_Negative_Frequencies> (1)
0

>  <r_j_Zero_Point_Energy_(kcal/mol)> (1)
266.944257891703

>  <r_j_Entropy_(cal/mol/K)_298.15K_1.00E+00atm> (1)
127.707993361019

>  <r_j_Enthalpy_(kcal/mol)_298.15K_1.00E+00atm> (1)
11.0348741230562

>  <r_j_Free_Energy_(kcal/mol)_298.15K_1.00E+00atm> (1)
-27.0412640975317

>  <r_j_Internal_Energy_(kcal/mol)_298.15K_1.00E+00atm> (1)
10.4423885342289

>  <r_j_Heat_Capacity_(cal/mol/K)_298.15K_1.00E+00atm> (1)
65.9112316996499

>  <r_j_ln(Q)_298.15K_1.00E+00atm> (1)
45.6403743946841

>  <r_j_Total_Internal_Energy_(au)_298.15K_1.00E+00atm> (1)
-589.495856457863

>  <r_j_Total_Enthalpy_(au)_298.15K_1.00E+00atm> (1)
-589.494912271971

>  <r_j_Total_Free_Energy_(au)_298.15K_1.00E+00atm> (1)
-589.555590460972

>  <r_lp_tautomer_probability> (1)
1

>  <r_epik_Ionization_Penalty> (1)
  0.0000

>  <r_epik_Ionization_Penalty_Charging> (1)
  0.0000

>  <r_epik_Ionization_Penalty_Neutral> (1)
  0.0000

>  <r_epik_State_Penalty> (1)
  0.0000

>  <r_epik_Charging_Adjusted_Penalty> (1)
0

>  <i_epik_Tot_Q> (1)
0

>  <i_epik_Tot_abs_Q> (1)
0

>  <s_lp_Force_Field> (1)
S-OPLS

>  <r_lp_Energy> (1)
12.307783

>  <b_lp_Chiralities_Consistent> (1)
1

$$$$
