179_3-Hydroxy-2-butanone
                    3D
 Schrodinger Suite 2021-3.
 14 13  0  0  1  0            999 V2000
   -0.3670   -0.7860    1.2289 C   0  0  0  0  0  0
   -0.0386    0.0530   -0.0146 C   0  0  0  0  0  0
    1.4697    0.1002   -0.2795 C   0  0  0  0  0  0
    2.0302    1.1832   -0.3241 O   0  0  0  0  0  0
    2.2132   -1.2010   -0.4680 C   0  0  0  0  0  0
   -0.5447    1.3556    0.1338 O   0  0  0  0  0  0
   -0.0809   -1.8346    1.1025 H   0  0  0  0  0  0
   -1.4429   -0.7386    1.4114 H   0  0  0  0  0  0
    0.1450   -0.3764    2.1051 H   0  0  0  0  0  0
   -0.4940   -0.4337   -0.8968 H   0  0  0  0  0  0
    1.6385   -1.9046   -1.0783 H   0  0  0  0  0  0
    2.3715   -1.6724    0.5089 H   0  0  0  0  0  0
    3.1839   -1.0051   -0.9254 H   0  0  0  0  0  0
    0.2230    1.9428    0.0088 H   0  0  0  0  0  0
  1  2  1  0  0  0
  1  7  1  0  0  0
  1  8  1  0  0  0
  1  9  1  0  0  0
  2  3  1  0  0  0
  2  6  1  0  0  0
  2 10  1  0  0  0
  3  4  2  0  0  0
  3  5  1  0  0  0
  5 11  1  0  0  0
  5 12  1  0  0  0
  5 13  1  0  0  0
  6 14  1  0  0  0
M  END
>  <i_m_Spin_multiplicity> (1)
1

>  <s_j_Task> (1)
Single Point

>  <s_j_QM_Method> (1)
DFT(b3lyp-d3)

>  <s_j_QM_Basis> (1)
cc-pvtz(-f)

>  <i_j_Number_of_canonical_orbitals> (1)
210

>  <i_j_Geometry_convergence_category> (1)
0

>  <r_j_Gas_Phase_Energy> (1)
-307.810680146452

>  <r_j_Final_Energy> (1)
-307.810680146452

>  <r_j_HOMO> (1)
-0.273886451253826

>  <r_j_LUMO> (1)
-0.0398681884365679

>  <r_j_Polarizability> (1)
54.922482915104

>  <r_j_QM_Dipole_(debye)> (1)
3.11998584672944

>  <r_j_QM_Dipole_X_(debye)> (1)
0.504335152034299

>  <r_j_QM_Dipole_Y_(debye)> (1)
-3.07818450302593

>  <r_j_QM_Dipole_Z_(debye)> (1)
-0.0688324309143009

>  <r_j_Lowest_Frequency_(cm-1)> (1)
106.362729220179

>  <r_j_Highest_Frequency_(cm-1)> (1)
3618.6442949778

>  <r_j_2nd_Lowest_Frequency_(cm-1)> (1)
218.921998596442

>  <i_j_Num_Negative_Frequencies> (1)
0

>  <r_j_Zero_Point_Energy_(kcal/mol)> (1)
73.5642367966764

>  <r_j_Entropy_(cal/mol/K)_298.15K_1.00E+00atm> (1)
79.8417006128753

>  <r_j_Enthalpy_(kcal/mol)_298.15K_1.00E+00atm> (1)
4.87757312548278

>  <r_j_Free_Energy_(kcal/mol)_298.15K_1.00E+00atm> (1)
-18.927229912246

>  <r_j_Internal_Energy_(kcal/mol)_298.15K_1.00E+00atm> (1)
4.2850875366555

>  <r_j_Heat_Capacity_(cal/mol/K)_298.15K_1.00E+00atm> (1)
24.7214525104421

>  <r_j_ln(Q)_298.15K_1.00E+00atm> (1)
31.9454688336121

>  <r_j_Total_Internal_Energy_(au)_298.15K_1.00E+00atm> (1)
-307.686619350472

>  <r_j_Total_Enthalpy_(au)_298.15K_1.00E+00atm> (1)
-307.68567516458

>  <r_j_Total_Free_Energy_(au)_298.15K_1.00E+00atm> (1)
-307.723610533169

>  <r_lp_tautomer_probability> (1)
1

>  <r_epik_Ionization_Penalty> (1)
  0.0000

>  <r_epik_Ionization_Penalty_Charging> (1)
  0.0000

>  <r_epik_Ionization_Penalty_Neutral> (1)
  0.0000

>  <r_epik_State_Penalty> (1)
  0.0000

>  <r_epik_Charging_Adjusted_Penalty> (1)
0

>  <i_epik_Tot_Q> (1)
0

>  <i_epik_Tot_abs_Q> (1)
0

>  <s_lp_Force_Field> (1)
S-OPLS

>  <r_lp_Energy> (1)
1.07198

>  <b_lp_Chiralities_Consistent> (1)
1

$$$$
