18027_Heptadecan-2-one
                    3D
 Schrodinger Suite 2021-3.
 52 51  0  0  1  0            999 V2000
   -7.4585    1.4062    1.9896 C   0  0  0  0  0  0
   -6.6867    2.1195    0.8756 C   0  0  0  0  0  0
   -5.1657    2.0512    1.0591 C   0  0  0  0  0  0
   -4.3924    2.7575   -0.0622 C   0  0  0  0  0  0
   -2.8685    2.7859    0.1309 C   0  0  0  0  0  0
   -2.1987    1.4053    0.1178 C   0  0  0  0  0  0
   -0.6689    1.4792    0.1890 C   0  0  0  0  0  0
    0.0010    0.0988    0.2113 C   0  0  0  0  0  0
    1.5362    0.1348    0.1630 C   0  0  0  0  0  0
    2.1946    0.8127    1.3718 C   0  0  0  0  0  0
    3.7255    0.7374    1.3437 C   0  0  0  0  0  0
    4.3896    1.4371    2.5349 C   0  0  0  0  0  0
    5.9193    1.3412    2.5187 C   0  0  0  0  0  0
    6.5788    2.0617    3.6995 C   0  0  0  0  0  0
    8.1174    1.9476    3.6842 C   0  0  0  0  0  0
    8.7189    2.7176    4.8518 C   0  0  0  0  0  0
    8.9878    3.9003    4.7531 O   0  0  0  0  0  0
    8.9213    1.9536    6.1479 C   0  0  0  0  0  0
   -8.5407    1.4704    1.8355 H   0  0  0  0  0  0
   -7.2344    1.8458    2.9684 H   0  0  0  0  0  0
   -7.1909    0.3443    2.0371 H   0  0  0  0  0  0
   -6.9527    1.6802   -0.0956 H   0  0  0  0  0  0
   -6.9982    3.1719    0.8271 H   0  0  0  0  0  0
   -4.8953    2.5008    2.0258 H   0  0  0  0  0  0
   -4.8616    0.9979    1.1190 H   0  0  0  0  0  0
   -4.6263    2.2737   -1.0215 H   0  0  0  0  0  0
   -4.7584    3.7898   -0.1471 H   0  0  0  0  0  0
   -2.4228    3.4019   -0.6620 H   0  0  0  0  0  0
   -2.6315    3.2930    1.0772 H   0  0  0  0  0  0
   -2.5667    0.8029    0.9586 H   0  0  0  0  0  0
   -2.4953    0.8668   -0.7941 H   0  0  0  0  0  0
   -0.2913    2.0517   -0.6707 H   0  0  0  0  0  0
   -0.3809    2.0489    1.0822 H   0  0  0  0  0  0
   -0.3211   -0.4441    1.1115 H   0  0  0  0  0  0
   -0.3664   -0.4866   -0.6425 H   0  0  0  0  0  0
    1.9133   -0.8941    0.0856 H   0  0  0  0  0  0
    1.8582    0.6453   -0.7560 H   0  0  0  0  0  0
    1.8904    1.8662    1.4213 H   0  0  0  0  0  0
    1.8240    0.3457    2.2959 H   0  0  0  0  0  0
    4.0380   -0.3164    1.3193 H   0  0  0  0  0  0
    4.0947    1.1837    0.4093 H   0  0  0  0  0  0
    4.0917    2.4950    2.5477 H   0  0  0  0  0  0
    4.0081    1.0038    3.4705 H   0  0  0  0  0  0
    6.2186    0.2835    2.5228 H   0  0  0  0  0  0
    6.3029    1.7624    1.5791 H   0  0  0  0  0  0
    6.3069    3.1243    3.6849 H   0  0  0  0  0  0
    6.1870    1.6527    4.6410 H   0  0  0  0  0  0
    8.4085    0.8907    3.7242 H   0  0  0  0  0  0
    8.5072    2.3821    2.7583 H   0  0  0  0  0  0
    9.7173    1.2108    6.0146 H   0  0  0  0  0  0
    8.0147    1.4012    6.4199 H   0  0  0  0  0  0
    9.1966    2.6411    6.9487 H   0  0  0  0  0  0
  1  2  1  0  0  0
  1 19  1  0  0  0
  1 20  1  0  0  0
  1 21  1  0  0  0
  2  3  1  0  0  0
  2 22  1  0  0  0
  2 23  1  0  0  0
  3  4  1  0  0  0
  3 24  1  0  0  0
  3 25  1  0  0  0
  4  5  1  0  0  0
  4 26  1  0  0  0
  4 27  1  0  0  0
  5  6  1  0  0  0
  5 28  1  0  0  0
  5 29  1  0  0  0
  6  7  1  0  0  0
  6 30  1  0  0  0
  6 31  1  0  0  0
  7  8  1  0  0  0
  7 32  1  0  0  0
  7 33  1  0  0  0
  8  9  1  0  0  0
  8 34  1  0  0  0
  8 35  1  0  0  0
  9 10  1  0  0  0
  9 36  1  0  0  0
  9 37  1  0  0  0
 10 11  1  0  0  0
 10 38  1  0  0  0
 10 39  1  0  0  0
 11 12  1  0  0  0
 11 40  1  0  0  0
 11 41  1  0  0  0
 12 13  1  0  0  0
 12 42  1  0  0  0
 12 43  1  0  0  0
 13 14  1  0  0  0
 13 44  1  0  0  0
 13 45  1  0  0  0
 14 15  1  0  0  0
 14 46  1  0  0  0
 14 47  1  0  0  0
 15 16  1  0  0  0
 15 48  1  0  0  0
 15 49  1  0  0  0
 16 17  2  0  0  0
 16 18  1  0  0  0
 18 50  1  0  0  0
 18 51  1  0  0  0
 18 52  1  0  0  0
M  END
>  <i_m_Spin_multiplicity> (1)
1

>  <s_j_Task> (1)
Single Point

>  <s_j_QM_Method> (1)
DFT(b3lyp-d3)

>  <s_j_QM_Basis> (1)
cc-pvtz(-f)

>  <i_j_Number_of_canonical_orbitals> (1)
716

>  <i_j_Geometry_convergence_category> (1)
0

>  <r_j_Gas_Phase_Energy> (1)
-743.842334238807

>  <r_j_Final_Energy> (1)
-743.842334238807

>  <r_j_HOMO> (1)
-0.260226377260774

>  <r_j_LUMO> (1)
-0.0339441317531422

>  <r_j_Polarizability> (1)
212.874355273048

>  <r_j_QM_Dipole_(debye)> (1)
2.94609517544741

>  <r_j_QM_Dipole_X_(debye)> (1)
-1.09560033367872

>  <r_j_QM_Dipole_Y_(debye)> (1)
-2.73425226406614

>  <r_j_QM_Dipole_Z_(debye)> (1)
-0.0547836479872259

>  <r_j_Lowest_Frequency_(cm-1)> (1)
26.5633499529682

>  <r_j_Highest_Frequency_(cm-1)> (1)
3099.90557498635

>  <r_j_2nd_Lowest_Frequency_(cm-1)> (1)
48.4665193183569

>  <i_j_Num_Negative_Frequencies> (1)
0

>  <r_j_Zero_Point_Energy_(kcal/mol)> (1)
303.113997312728

>  <r_j_Entropy_(cal/mol/K)_298.15K_1.00E+00atm> (1)
152.065096374471

>  <r_j_Enthalpy_(kcal/mol)_298.15K_1.00E+00atm> (1)
14.2630947044408

>  <r_j_Free_Energy_(kcal/mol)_298.15K_1.00E+00atm> (1)
-31.0751137796078

>  <r_j_Internal_Energy_(kcal/mol)_298.15K_1.00E+00atm> (1)
13.6706091156135

>  <r_j_Heat_Capacity_(cal/mol/K)_298.15K_1.00E+00atm> (1)
82.6048319537652

>  <r_j_ln(Q)_298.15K_1.00E+00atm> (1)
52.4487251092736

>  <r_j_Total_Internal_Energy_(au)_298.15K_1.00E+00atm> (1)
-743.337505831311

>  <r_j_Total_Enthalpy_(au)_298.15K_1.00E+00atm> (1)
-743.336561645419

>  <r_j_Total_Free_Energy_(au)_298.15K_1.00E+00atm> (1)
-743.408812680107

>  <r_lp_tautomer_probability> (1)
1

>  <r_epik_Ionization_Penalty> (1)
  0.0000

>  <r_epik_Ionization_Penalty_Charging> (1)
  0.0000

>  <r_epik_Ionization_Penalty_Neutral> (1)
  0.0000

>  <r_epik_State_Penalty> (1)
  0.0000

>  <r_epik_Charging_Adjusted_Penalty> (1)
0

>  <i_epik_Tot_Q> (1)
0

>  <i_epik_Tot_abs_Q> (1)
0

>  <s_lp_Force_Field> (1)
S-OPLS

>  <r_lp_Energy> (1)
8.071996

>  <b_lp_Chiralities_Consistent> (1)
1

$$$$
