180_Acetone
                    3D
 Schrodinger Suite 2021-3.
 10  9  0  0  1  0            999 V2000
   -0.0322   -0.0333    0.0000 C   0  0  0  0  0  0
    1.4917    0.0131    0.0000 C   0  0  0  0  0  0
    2.1398   -1.0156    0.0000 O   0  0  0  0  0  0
    2.1917    1.3676    0.0000 C   0  0  0  0  0  0
   -0.5030    0.9522    0.0000 H   0  0  0  0  0  0
   -0.3664   -0.5932    0.8794 H   0  0  0  0  0  0
   -0.3664   -0.5933   -0.8794 H   0  0  0  0  0  0
    1.5062    2.2178    0.0000 H   0  0  0  0  0  0
    2.8410    1.4272   -0.8794 H   0  0  0  0  0  0
    2.8411    1.4272    0.8794 H   0  0  0  0  0  0
  1  2  1  0  0  0
  1  5  1  0  0  0
  1  6  1  0  0  0
  1  7  1  0  0  0
  2  3  2  0  0  0
  2  4  1  0  0  0
  4  8  1  0  0  0
  4  9  1  0  0  0
  4 10  1  0  0  0
M  END
>  <i_m_Spin_multiplicity> (1)
1

>  <s_j_Task> (1)
Single Point

>  <s_j_QM_Method> (1)
DFT(b3lyp-d3)

>  <s_j_QM_Basis> (1)
cc-pvtz(-f)

>  <i_j_Number_of_canonical_orbitals> (1)
146

>  <i_j_Geometry_convergence_category> (1)
0

>  <r_j_Gas_Phase_Energy> (1)
-193.229002825732

>  <r_j_Final_Energy> (1)
-193.229002825732

>  <r_j_HOMO> (1)
-0.254907883669286

>  <r_j_LUMO> (1)
-0.0296948108020649

>  <r_j_Polarizability> (1)
39.3741546293947

>  <r_j_QM_Dipole_(debye)> (1)
2.74516427123433

>  <r_j_QM_Dipole_X_(debye)> (1)
-1.46346588613123

>  <r_j_QM_Dipole_Y_(debye)> (1)
2.32254052195347

>  <r_j_QM_Dipole_Z_(debye)> (1)
8.70345317935994e-06

>  <r_j_Lowest_Frequency_(cm-1)> (1)
65.0583349258858

>  <r_j_Highest_Frequency_(cm-1)> (1)
3091.39182529772

>  <r_j_2nd_Lowest_Frequency_(cm-1)> (1)
112.811451151468

>  <i_j_Num_Negative_Frequencies> (1)
0

>  <r_j_Zero_Point_Energy_(kcal/mol)> (1)
52.1177155805144

>  <r_j_Entropy_(cal/mol/K)_298.15K_1.00E+00atm> (1)
71.7885873658292

>  <r_j_Enthalpy_(kcal/mol)_298.15K_1.00E+00atm> (1)
3.90381071267037

>  <r_j_Free_Energy_(kcal/mol)_298.15K_1.00E+00atm> (1)
-17.4999566104516

>  <r_j_Internal_Energy_(kcal/mol)_298.15K_1.00E+00atm> (1)
3.31132512384309

>  <r_j_Heat_Capacity_(cal/mol/K)_298.15K_1.00E+00atm> (1)
16.6785140497335

>  <r_j_ln(Q)_298.15K_1.00E+00atm> (1)
29.536510153926

>  <r_j_Total_Internal_Energy_(au)_298.15K_1.00E+00atm> (1)
-193.140671026207

>  <r_j_Total_Enthalpy_(au)_298.15K_1.00E+00atm> (1)
-193.139726840315

>  <r_j_Total_Free_Energy_(au)_298.15K_1.00E+00atm> (1)
-193.173835914913

>  <r_lp_tautomer_probability> (1)
1

>  <r_epik_Ionization_Penalty> (1)
  0.0000

>  <r_epik_Ionization_Penalty_Charging> (1)
  0.0000

>  <r_epik_Ionization_Penalty_Neutral> (1)
  0.0000

>  <r_epik_State_Penalty> (1)
  0.0000

>  <r_epik_Charging_Adjusted_Penalty> (1)
0

>  <i_epik_Tot_Q> (1)
0

>  <i_epik_Tot_abs_Q> (1)
0

>  <s_lp_Force_Field> (1)
S-OPLS

>  <r_lp_Energy> (1)
-0.55029

>  <b_lp_Chiralities_Consistent> (1)
1

$$$$
