181174_Pentacosanal
                    3D
 Schrodinger Suite 2021-3.
 76 75  0  0  1  0            999 V2000
   -2.0698    8.5211    5.2677 C   0  0  0  0  0  0
   -3.3911    8.4257    4.4993 C   0  0  0  0  0  0
   -3.2418    7.7697    3.1209 C   0  0  0  0  0  0
   -4.5702    7.6679    2.3599 C   0  0  0  0  0  0
   -4.4571    7.0938    0.9393 C   0  0  0  0  0  0
   -3.9761    5.6374    0.8751 C   0  0  0  0  0  0
   -4.0468    5.0508   -0.5416 C   0  0  0  0  0  0
   -3.6169    3.5790   -0.6449 C   0  0  0  0  0  0
   -2.1164    3.3332   -0.4347 C   0  0  0  0  0  0
   -1.7313    1.8545   -0.5626 C   0  0  0  0  0  0
   -0.2237    1.5963   -0.4559 C   0  0  0  0  0  0
    0.1394    0.1088   -0.5378 C   0  0  0  0  0  0
    1.6486   -0.1612   -0.5258 C   0  0  0  0  0  0
    1.9933   -1.6550   -0.5480 C   0  0  0  0  0  0
    3.4981   -1.9416   -0.6139 C   0  0  0  0  0  0
    3.8277   -3.4380   -0.5568 C   0  0  0  0  0  0
    5.3277   -3.7398   -0.6787 C   0  0  0  0  0  0
    5.6800   -5.2342   -0.5909 C   0  0  0  0  0  0
    5.4583   -5.8451    0.7991 C   0  0  0  0  0  0
    5.8008   -7.3392    0.8703 C   0  0  0  0  0  0
    5.7118   -7.9358    2.2843 C   0  0  0  0  0  0
    4.3095   -7.8797    2.9043 C   0  0  0  0  0  0
    4.2446   -8.5121    4.2990 C   0  0  0  0  0  0
    2.8387   -8.4214    4.9230 C   0  0  0  0  0  0
    2.8256   -8.9375    6.3421 C   0  0  0  0  0  0
    2.1516   -9.8626    6.7379 O   0  0  0  0  0  0
   -2.2058    8.9937    6.2462 H   0  0  0  0  0  0
   -1.3321    9.1114    4.7118 H   0  0  0  0  0  0
   -1.6379    7.5274    5.4344 H   0  0  0  0  0  0
   -4.1207    7.8565    5.0917 H   0  0  0  0  0  0
   -3.8191    9.4302    4.3768 H   0  0  0  0  0  0
   -2.5212    8.3441    2.5202 H   0  0  0  0  0  0
   -2.8036    6.7708    3.2470 H   0  0  0  0  0  0
   -5.2719    7.0533    2.9422 H   0  0  0  0  0  0
   -5.0208    8.6683    2.3028 H   0  0  0  0  0  0
   -5.4403    7.1620    0.4537 H   0  0  0  0  0  0
   -3.7815    7.7243    0.3435 H   0  0  0  0  0  0
   -2.9494    5.5707    1.2541 H   0  0  0  0  0  0
   -4.5911    5.0226    1.5490 H   0  0  0  0  0  0
   -5.0784    5.1460   -0.9071 H   0  0  0  0  0  0
   -3.4294    5.6583   -1.2193 H   0  0  0  0  0  0
   -4.1887    2.9833    0.0815 H   0  0  0  0  0  0
   -3.8961    3.1950   -1.6355 H   0  0  0  0  0  0
   -1.5499    3.9235   -1.1696 H   0  0  0  0  0  0
   -1.8067    3.7000    0.5527 H   0  0  0  0  0  0
   -2.2565    1.2760    0.2111 H   0  0  0  0  0  0
   -2.0938    1.4670   -1.5257 H   0  0  0  0  0  0
    0.2944    2.1435   -1.2566 H   0  0  0  0  0  0
    0.1552    2.0121    0.4887 H   0  0  0  0  0  0
   -0.3333   -0.4250    0.2993 H   0  0  0  0  0  0
   -0.2949   -0.3209   -1.4520 H   0  0  0  0  0  0
    2.1122    0.3345   -1.3908 H   0  0  0  0  0  0
    2.0976    0.3019    0.3646 H   0  0  0  0  0  0
    1.5702   -2.1354    0.3461 H   0  0  0  0  0  0
    1.4982   -2.1300   -1.4073 H   0  0  0  0  0  0
    3.9110   -1.5084   -1.5361 H   0  0  0  0  0  0
    4.0054   -1.4277    0.2153 H   0  0  0  0  0  0
    3.4365   -3.8470    0.3839 H   0  0  0  0  0  0
    3.2902   -3.9618   -1.3606 H   0  0  0  0  0  0
    5.6898   -3.3401   -1.6354 H   0  0  0  0  0  0
    5.8741   -3.1935    0.1038 H   0  0  0  0  0  0
    5.0888   -5.7910   -1.3324 H   0  0  0  0  0  0
    6.7316   -5.3745   -0.8749 H   0  0  0  0  0  0
    6.0678   -5.2977    1.5334 H   0  0  0  0  0  0
    4.4150   -5.6968    1.0999 H   0  0  0  0  0  0
    5.1336   -7.8960    0.1969 H   0  0  0  0  0  0
    6.8178   -7.4929    0.4850 H   0  0  0  0  0  0
    6.0466   -8.9814    2.2552 H   0  0  0  0  0  0
    6.4168   -7.4084    2.9429 H   0  0  0  0  0  0
    3.9737   -6.8375    2.9766 H   0  0  0  0  0  0
    3.5951   -8.3856    2.2396 H   0  0  0  0  0  0
    4.5499   -9.5651    4.2455 H   0  0  0  0  0  0
    4.9699   -8.0137    4.9575 H   0  0  0  0  0  0
    2.5260   -7.3666    4.9453 H   0  0  0  0  0  0
    2.1039   -8.9843    4.3394 H   0  0  0  0  0  0
    3.5183   -8.4007    7.0341 H   0  0  0  0  0  0
  1  2  1  0  0  0
  1 27  1  0  0  0
  1 28  1  0  0  0
  1 29  1  0  0  0
  2  3  1  0  0  0
  2 30  1  0  0  0
  2 31  1  0  0  0
  3  4  1  0  0  0
  3 32  1  0  0  0
  3 33  1  0  0  0
  4  5  1  0  0  0
  4 34  1  0  0  0
  4 35  1  0  0  0
  5  6  1  0  0  0
  5 36  1  0  0  0
  5 37  1  0  0  0
  6  7  1  0  0  0
  6 38  1  0  0  0
  6 39  1  0  0  0
  7  8  1  0  0  0
  7 40  1  0  0  0
  7 41  1  0  0  0
  8  9  1  0  0  0
  8 42  1  0  0  0
  8 43  1  0  0  0
  9 10  1  0  0  0
  9 44  1  0  0  0
  9 45  1  0  0  0
 10 11  1  0  0  0
 10 46  1  0  0  0
 10 47  1  0  0  0
 11 12  1  0  0  0
 11 48  1  0  0  0
 11 49  1  0  0  0
 12 13  1  0  0  0
 12 50  1  0  0  0
 12 51  1  0  0  0
 13 14  1  0  0  0
 13 52  1  0  0  0
 13 53  1  0  0  0
 14 15  1  0  0  0
 14 54  1  0  0  0
 14 55  1  0  0  0
 15 16  1  0  0  0
 15 56  1  0  0  0
 15 57  1  0  0  0
 16 17  1  0  0  0
 16 58  1  0  0  0
 16 59  1  0  0  0
 17 18  1  0  0  0
 17 60  1  0  0  0
 17 61  1  0  0  0
 18 19  1  0  0  0
 18 62  1  0  0  0
 18 63  1  0  0  0
 19 20  1  0  0  0
 19 64  1  0  0  0
 19 65  1  0  0  0
 20 21  1  0  0  0
 20 66  1  0  0  0
 20 67  1  0  0  0
 21 22  1  0  0  0
 21 68  1  0  0  0
 21 69  1  0  0  0
 22 23  1  0  0  0
 22 70  1  0  0  0
 22 71  1  0  0  0
 23 24  1  0  0  0
 23 72  1  0  0  0
 23 73  1  0  0  0
 24 25  1  0  0  0
 24 74  1  0  0  0
 24 75  1  0  0  0
 25 26  2  0  0  0
 25 76  1  0  0  0
M  END
>  <i_m_Spin_multiplicity> (1)
1

>  <s_j_Task> (1)
Single Point

>  <s_j_QM_Method> (1)
DFT(b3lyp-d3)

>  <s_j_QM_Basis> (1)
cc-pvtz(-f)

>  <i_j_Number_of_canonical_orbitals> (1)
1040

>  <i_j_Geometry_convergence_category> (1)
3

>  <r_j_Gas_Phase_Energy> (1)
-1058.46423882326

>  <r_j_Final_Energy> (1)
-1058.46423882326

>  <r_j_HOMO> (1)
-0.277474895352144

>  <r_j_LUMO> (1)
-0.11336177569043

>  <r_j_Polarizability> (1)
311.673582612611

>  <r_j_QM_Dipole_(debye)> (1)
3.17364870071226

>  <r_j_QM_Dipole_X_(debye)> (1)
1.48578192794038

>  <r_j_QM_Dipole_Y_(debye)> (1)
2.13127101985302

>  <r_j_QM_Dipole_Z_(debye)> (1)
-1.82268537550315

>  <r_j_Lowest_Frequency_(cm-1)> (1)
16.0835463099624

>  <r_j_Highest_Frequency_(cm-1)> (1)
3050.82792038439

>  <r_j_2nd_Lowest_Frequency_(cm-1)> (1)
24.5434694408711

>  <i_j_Num_Negative_Frequencies> (1)
0

>  <r_j_Zero_Point_Energy_(kcal/mol)> (1)
446.308903173

>  <r_j_Entropy_(cal/mol/K)_298.15K_1.00E+00atm> (1)
194.113478983435

>  <r_j_Enthalpy_(kcal/mol)_298.15K_1.00E+00atm> (1)
20.2359362250616

>  <r_j_Free_Energy_(kcal/mol)_298.15K_1.00E+00atm> (1)
-37.6389975338494

>  <r_j_Internal_Energy_(kcal/mol)_298.15K_1.00E+00atm> (1)
19.6434506362344

>  <r_j_Heat_Capacity_(cal/mol/K)_298.15K_1.00E+00atm> (1)
119.779283525826

>  <r_j_ln(Q)_298.15K_1.00E+00atm> (1)
63.5272793864057

>  <r_j_Total_Internal_Energy_(au)_298.15K_1.00E+00atm> (1)
-1057.72169647755

>  <r_j_Total_Enthalpy_(au)_298.15K_1.00E+00atm> (1)
-1057.72075229166

>  <r_j_Total_Free_Energy_(au)_298.15K_1.00E+00atm> (1)
-1057.8129818699

>  <r_lp_tautomer_probability> (1)
1

>  <r_epik_Ionization_Penalty> (1)
  0.0000

>  <r_epik_Ionization_Penalty_Charging> (1)
  0.0000

>  <r_epik_Ionization_Penalty_Neutral> (1)
  0.0000

>  <r_epik_State_Penalty> (1)
  0.0000

>  <r_epik_Charging_Adjusted_Penalty> (1)
0

>  <i_epik_Tot_Q> (1)
0

>  <i_epik_Tot_abs_Q> (1)
0

>  <s_lp_Force_Field> (1)
S-OPLS

>  <r_lp_Energy> (1)
13.944

>  <b_lp_Chiralities_Consistent> (1)
1

$$$$
