181154_1-Tricosene
                    3D
 Schrodinger Suite 2021-3.
 69 68  0  0  1  0            999 V2000
   -4.4010   11.5072   -2.8277 C   0  0  0  0  0  0
   -4.7887   10.1448   -2.2455 C   0  0  0  0  0  0
   -3.7720    9.0405   -2.5609 C   0  0  0  0  0  0
   -4.1593    7.6795   -1.9722 C   0  0  0  0  0  0
   -3.1544    6.5608   -2.2725 C   0  0  0  0  0  0
   -3.5609    5.2173   -1.6564 C   0  0  0  0  0  0
   -2.5748    4.0746   -1.9274 C   0  0  0  0  0  0
   -3.0073    2.7621   -1.2602 C   0  0  0  0  0  0
   -2.0936    1.5579   -1.5303 C   0  0  0  0  0  0
   -0.6531    1.7208   -1.0219 C   0  0  0  0  0  0
    0.1211    0.3974   -0.9956 C   0  0  0  0  0  0
    1.5869    0.5423   -0.5674 C   0  0  0  0  0  0
    2.2685   -0.8052   -0.3006 C   0  0  0  0  0  0
    3.7587   -0.6926    0.0442 C   0  0  0  0  0  0
    4.3544   -2.0138    0.5514 C   0  0  0  0  0  0
    5.8672   -1.9673    0.8215 C   0  0  0  0  0  0
    6.7322   -2.0238   -0.4451 C   0  0  0  0  0  0
    8.2352   -1.9196   -0.1474 C   0  0  0  0  0  0
    9.1442   -2.2782   -1.3323 C   0  0  0  0  0  0
    8.9733   -1.3864   -2.5683 C   0  0  0  0  0  0
    9.9478   -1.7621   -3.7010 C   0  0  0  0  0  0
    9.7914   -0.8979   -4.9207 C   0  0  0  0  0  0
    9.4478   -1.3310   -6.1339 C   0  0  0  0  0  0
   -5.1446   12.2743   -2.5869 H   0  0  0  0  0  0
   -4.3128   11.4590   -3.9192 H   0  0  0  0  0  0
   -3.4350   11.8437   -2.4338 H   0  0  0  0  0  0
   -4.9019   10.2296   -1.1559 H   0  0  0  0  0  0
   -5.7743    9.8476   -2.6295 H   0  0  0  0  0  0
   -3.6598    8.9498   -3.6510 H   0  0  0  0  0  0
   -2.7842    9.3363   -2.1789 H   0  0  0  0  0  0
   -4.2743    7.7774   -0.8829 H   0  0  0  0  0  0
   -5.1486    7.3884   -2.3538 H   0  0  0  0  0  0
   -3.0455    6.4483   -3.3607 H   0  0  0  0  0  0
   -2.1626    6.8501   -1.8965 H   0  0  0  0  0  0
   -3.6751    5.3413   -0.5697 H   0  0  0  0  0  0
   -4.5547    4.9334   -2.0316 H   0  0  0  0  0  0
   -2.4771    3.9205   -3.0119 H   0  0  0  0  0  0
   -1.5783    4.3656   -1.5696 H   0  0  0  0  0  0
   -3.0737    2.9211   -0.1740 H   0  0  0  0  0  0
   -4.0257    2.5166   -1.5915 H   0  0  0  0  0  0
   -2.5377    0.6732   -1.0535 H   0  0  0  0  0  0
   -2.0750    1.3419   -2.6080 H   0  0  0  0  0  0
   -0.1156    2.4498   -1.6426 H   0  0  0  0  0  0
   -0.6712    2.1428   -0.0062 H   0  0  0  0  0  0
   -0.3888   -0.2949   -0.3100 H   0  0  0  0  0  0
    0.0775   -0.0763   -1.9868 H   0  0  0  0  0  0
    2.1414    1.0961   -1.3383 H   0  0  0  0  0  0
    1.6423    1.1557    0.3436 H   0  0  0  0  0  0
    1.7430   -1.3077    0.5244 H   0  0  0  0  0  0
    2.1480   -1.4600   -1.1755 H   0  0  0  0  0  0
    4.3080   -0.3388   -0.8384 H   0  0  0  0  0  0
    3.8991    0.0774    0.8167 H   0  0  0  0  0  0
    3.8296   -2.2950    1.4742 H   0  0  0  0  0  0
    4.1409   -2.8147   -0.1714 H   0  0  0  0  0  0
    6.1077   -1.0589    1.3928 H   0  0  0  0  0  0
    6.1459   -2.8109    1.4672 H   0  0  0  0  0  0
    6.5298   -2.9697   -0.9689 H   0  0  0  0  0  0
    6.4353   -1.2257   -1.1364 H   0  0  0  0  0  0
    8.4657   -0.9025    0.2003 H   0  0  0  0  0  0
    8.4782   -2.5873    0.6907 H   0  0  0  0  0  0
   10.1920   -2.2342   -1.0047 H   0  0  0  0  0  0
    8.9603   -3.3235   -1.6197 H   0  0  0  0  0  0
    7.9473   -1.4578   -2.9486 H   0  0  0  0  0  0
    9.1246   -0.3344   -2.2869 H   0  0  0  0  0  0
   10.9766   -1.6753   -3.3201 H   0  0  0  0  0  0
    9.8044   -2.8161   -3.9722 H   0  0  0  0  0  0
    9.9624    0.1692   -4.7686 H   0  0  0  0  0  0
    9.2640   -2.3851   -6.3307 H   0  0  0  0  0  0
    9.3409   -0.6530   -6.9759 H   0  0  0  0  0  0
  1  2  1  0  0  0
  1 24  1  0  0  0
  1 25  1  0  0  0
  1 26  1  0  0  0
  2  3  1  0  0  0
  2 27  1  0  0  0
  2 28  1  0  0  0
  3  4  1  0  0  0
  3 29  1  0  0  0
  3 30  1  0  0  0
  4  5  1  0  0  0
  4 31  1  0  0  0
  4 32  1  0  0  0
  5  6  1  0  0  0
  5 33  1  0  0  0
  5 34  1  0  0  0
  6  7  1  0  0  0
  6 35  1  0  0  0
  6 36  1  0  0  0
  7  8  1  0  0  0
  7 37  1  0  0  0
  7 38  1  0  0  0
  8  9  1  0  0  0
  8 39  1  0  0  0
  8 40  1  0  0  0
  9 10  1  0  0  0
  9 41  1  0  0  0
  9 42  1  0  0  0
 10 11  1  0  0  0
 10 43  1  0  0  0
 10 44  1  0  0  0
 11 12  1  0  0  0
 11 45  1  0  0  0
 11 46  1  0  0  0
 12 13  1  0  0  0
 12 47  1  0  0  0
 12 48  1  0  0  0
 13 14  1  0  0  0
 13 49  1  0  0  0
 13 50  1  0  0  0
 14 15  1  0  0  0
 14 51  1  0  0  0
 14 52  1  0  0  0
 15 16  1  0  0  0
 15 53  1  0  0  0
 15 54  1  0  0  0
 16 17  1  0  0  0
 16 55  1  0  0  0
 16 56  1  0  0  0
 17 18  1  0  0  0
 17 57  1  0  0  0
 17 58  1  0  0  0
 18 19  1  0  0  0
 18 59  1  0  0  0
 18 60  1  0  0  0
 19 20  1  0  0  0
 19 61  1  0  0  0
 19 62  1  0  0  0
 20 21  1  0  0  0
 20 63  1  0  0  0
 20 64  1  0  0  0
 21 22  1  0  0  0
 21 65  1  0  0  0
 21 66  1  0  0  0
 22 23  2  0  0  0
 22 67  1  0  0  0
 23 68  1  0  0  0
 23 69  1  0  0  0
M  END
>  <i_m_Spin_multiplicity> (1)
1

>  <s_j_Task> (1)
Single Point

>  <s_j_QM_Method> (1)
DFT(b3lyp-d3)

>  <s_j_QM_Basis> (1)
cc-pvtz(-f)

>  <i_j_Number_of_canonical_orbitals> (1)
936

>  <i_j_Geometry_convergence_category> (1)
4

>  <r_j_Gas_Phase_Energy> (1)
-904.540655207296

>  <r_j_Final_Energy> (1)
-904.540655207296

>  <r_j_HOMO> (1)
-0.239421293085406

>  <r_j_LUMO> (1)
0.0260328660912998

>  <r_j_Polarizability> (1)
285.31595312142

>  <r_j_QM_Dipole_(debye)> (1)
0.502934602706111

>  <r_j_QM_Dipole_X_(debye)> (1)
-0.0447553728739765

>  <r_j_QM_Dipole_Y_(debye)> (1)
-0.0783669762095299

>  <r_j_QM_Dipole_Z_(debye)> (1)
0.494771450508051

>  <r_j_Lowest_Frequency_(cm-1)> (1)
21.747146281165

>  <r_j_Highest_Frequency_(cm-1)> (1)
3165.13732738974

>  <r_j_2nd_Lowest_Frequency_(cm-1)> (1)
30.1330045778774

>  <i_j_Num_Negative_Frequencies> (1)
0

>  <r_j_Zero_Point_Energy_(kcal/mol)> (1)
407.549523288479

>  <r_j_Entropy_(cal/mol/K)_298.15K_1.00E+00atm> (1)
179.191758887674

>  <r_j_Enthalpy_(kcal/mol)_298.15K_1.00E+00atm> (1)
18.1272668270689

>  <r_j_Free_Energy_(kcal/mol)_298.15K_1.00E+00atm> (1)
-35.298756085291

>  <r_j_Internal_Energy_(kcal/mol)_298.15K_1.00E+00atm> (1)
17.5347812382416

>  <r_j_Heat_Capacity_(cal/mol/K)_298.15K_1.00E+00atm> (1)
107.382563518497

>  <r_j_ln(Q)_298.15K_1.00E+00atm> (1)
59.5774087183436

>  <r_j_Total_Internal_Energy_(au)_298.15K_1.00E+00atm> (1)
-903.863240244098

>  <r_j_Total_Enthalpy_(au)_298.15K_1.00E+00atm> (1)
-903.862296058206

>  <r_j_Total_Free_Energy_(au)_298.15K_1.00E+00atm> (1)
-903.947435845677

>  <r_lp_tautomer_probability> (1)
1

>  <r_epik_Ionization_Penalty> (1)
  0.0000

>  <r_epik_Ionization_Penalty_Charging> (1)
  0.0000

>  <r_epik_Ionization_Penalty_Neutral> (1)
  0.0000

>  <r_epik_State_Penalty> (1)
  0.0000

>  <r_epik_Charging_Adjusted_Penalty> (1)
0

>  <i_epik_Tot_Q> (1)
0

>  <i_epik_Tot_abs_Q> (1)
0

>  <s_lp_Force_Field> (1)
S-OPLS

>  <r_lp_Energy> (1)
9.535517

>  <b_lp_Chiralities_Consistent> (1)
1

$$$$
