181572_n-Tritriacontanoic acid
                    3D
 Schrodinger Suite 2021-3.
100 99  0  0  1  0            999 V2000
   -8.4534   13.7994    2.0889 C   0  0  0  0  0  0
   -8.0532   12.3409    1.8474 C   0  0  0  0  0  0
   -8.6137   11.7691    0.5393 C   0  0  0  0  0  0
   -8.2093   10.3105    0.2976 C   0  0  0  0  0  0
   -8.7624    9.7274   -1.0104 C   0  0  0  0  0  0
   -8.2829    8.2971   -1.3084 C   0  0  0  0  0  0
   -8.8274    7.2363   -0.3397 C   0  0  0  0  0  0
   -8.3239    5.8096   -0.6136 C   0  0  0  0  0  0
   -6.8166    5.6307   -0.3863 C   0  0  0  0  0  0
   -6.3396    4.1764   -0.4828 C   0  0  0  0  0  0
   -4.8275    4.0399   -0.2712 C   0  0  0  0  0  0
   -4.3120    2.5961   -0.2895 C   0  0  0  0  0  0
   -2.7929    2.5149   -0.0990 C   0  0  0  0  0  0
   -2.2324    1.0885   -0.0558 C   0  0  0  0  0  0
   -0.7071    1.0650    0.0966 C   0  0  0  0  0  0
   -0.0970   -0.3390    0.1821 C   0  0  0  0  0  0
    1.4333   -0.3057    0.2738 C   0  0  0  0  0  0
    2.0862   -1.6901    0.3841 C   0  0  0  0  0  0
    3.6229   -1.6469    0.4529 C   0  0  0  0  0  0
    4.2931   -1.2004   -0.8535 C   0  0  0  0  0  0
    5.8193   -1.0814   -0.7636 C   0  0  0  0  0  0
    6.4556   -0.6579   -2.0928 C   0  0  0  0  0  0
    7.9668   -0.4092   -2.0218 C   0  0  0  0  0  0
    8.5639   -0.0176   -3.3788 C   0  0  0  0  0  0
   10.0534    0.3427   -3.3359 C   0  0  0  0  0  0
   10.6182    0.6927   -4.7179 C   0  0  0  0  0  0
   12.0809    1.1515   -4.7056 C   0  0  0  0  0  0
   12.6251    1.4564   -6.1067 C   0  0  0  0  0  0
   14.0554    2.0071   -6.1186 C   0  0  0  0  0  0
   14.5936    2.2702   -7.5319 C   0  0  0  0  0  0
   16.0026    2.8803   -7.5718 C   0  0  0  0  0  0
   16.1253    4.2835   -6.9736 C   0  0  0  0  0  0
   17.4599    5.0340   -7.3768 C   0  0  0  0  0  0
   17.8277    5.9202   -6.5692 O   0  0  0  0  0  0
   17.9708    4.6792   -8.4712 O   0  5  0  0  0  0
   -8.0395   14.1804    3.0285 H   0  0  0  0  0  0
   -9.5434   13.9066    2.1364 H   0  0  0  0  0  0
   -8.0940   14.4458    1.2798 H   0  0  0  0  0  0
   -6.9579   12.2573    1.8369 H   0  0  0  0  0  0
   -8.3957   11.7215    2.6877 H   0  0  0  0  0  0
   -9.7105   11.8482    0.5482 H   0  0  0  0  0  0
   -8.2730   12.3880   -0.3034 H   0  0  0  0  0  0
   -7.1120   10.2366    0.2867 H   0  0  0  0  0  0
   -8.5440    9.7043    1.1494 H   0  0  0  0  0  0
   -9.8616    9.7495   -0.9844 H   0  0  0  0  0  0
   -8.4655   10.3827   -1.8405 H   0  0  0  0  0  0
   -8.5765    8.0211   -2.3305 H   0  0  0  0  0  0
   -7.1853    8.2874   -1.2951 H   0  0  0  0  0  0
   -8.5649    7.5045    0.6921 H   0  0  0  0  0  0
   -9.9251    7.2498   -0.3870 H   0  0  0  0  0  0
   -8.8654    5.1118    0.0397 H   0  0  0  0  0  0
   -8.5760    5.5193   -1.6438 H   0  0  0  0  0  0
   -6.2553    6.2365   -1.1095 H   0  0  0  0  0  0
   -6.5552    6.0273    0.6059 H   0  0  0  0  0  0
   -6.8715    3.5676    0.2625 H   0  0  0  0  0  0
   -6.6124    3.7624   -1.4641 H   0  0  0  0  0  0
   -4.3024    4.6208   -1.0432 H   0  0  0  0  0  0
   -4.5561    4.5036    0.6883 H   0  0  0  0  0  0
   -4.8136    2.0189    0.5005 H   0  0  0  0  0  0
   -4.5892    2.1167   -1.2393 H   0  0  0  0  0  0
   -2.3000    3.0712   -0.9093 H   0  0  0  0  0  0
   -2.5189    3.0349    0.8304 H   0  0  0  0  0  0
   -2.6954    0.5377    0.7756 H   0  0  0  0  0  0
   -2.5174    0.5523   -0.9723 H   0  0  0  0  0  0
   -0.2556    1.6016   -0.7503 H   0  0  0  0  0  0
   -0.4257    1.6335    0.9948 H   0  0  0  0  0  0
   -0.5102   -0.8674    1.0534 H   0  0  0  0  0  0
   -0.3969   -0.9242   -0.6991 H   0  0  0  0  0  0
    1.8229    0.2207   -0.6069 H   0  0  0  0  0  0
    1.7316    0.2996    1.1422 H   0  0  0  0  0  0
    1.6965   -2.1944    1.2789 H   0  0  0  0  0  0
    1.7783   -2.3084   -0.4717 H   0  0  0  0  0  0
    3.9283   -0.9742    1.2675 H   0  0  0  0  0  0
    4.0026   -2.6414    0.7234 H   0  0  0  0  0  0
    4.0276   -1.9083   -1.6523 H   0  0  0  0  0  0
    3.8891   -0.2291   -1.1669 H   0  0  0  0  0  0
    6.0794   -0.3507    0.0158 H   0  0  0  0  0  0
    6.2494   -2.0392   -0.4373 H   0  0  0  0  0  0
    6.2480   -1.4252   -2.8527 H   0  0  0  0  0  0
    5.9623    0.2578   -2.4503 H   0  0  0  0  0  0
    8.1694    0.3854   -1.2893 H   0  0  0  0  0  0
    8.4735   -1.3081   -1.6424 H   0  0  0  0  0  0
    8.4092   -0.8411   -4.0911 H   0  0  0  0  0  0
    8.0030    0.8373   -3.7841 H   0  0  0  0  0  0
   10.2016    1.1923   -2.6538 H   0  0  0  0  0  0
   10.6242   -0.4934   -2.9068 H   0  0  0  0  0  0
   10.5157   -0.1800   -5.3797 H   0  0  0  0  0  0
   10.0005    1.4834   -5.1684 H   0  0  0  0  0  0
   12.1744    2.0475   -4.0752 H   0  0  0  0  0  0
   12.7050    0.3811   -4.2297 H   0  0  0  0  0  0
   12.5771    0.5420   -6.7175 H   0  0  0  0  0  0
   11.9596    2.1803   -6.6002 H   0  0  0  0  0  0
   14.0905    2.9382   -5.5388 H   0  0  0  0  0  0
   14.7252    1.3034   -5.6016 H   0  0  0  0  0  0
   14.5737    1.3225   -8.0947 H   0  0  0  0  0  0
   13.8972    2.9462   -8.0526 H   0  0  0  0  0  0
   16.7048    2.2002   -7.0651 H   0  0  0  0  0  0
   16.3580    2.9565   -8.6053 H   0  0  0  0  0  0
   15.2868    4.9024   -7.3358 H   0  0  0  0  0  0
   16.0517    4.2795   -5.8791 H   0  0  0  0  0  0
  1  2  1  0  0  0
  1 36  1  0  0  0
  1 37  1  0  0  0
  1 38  1  0  0  0
  2  3  1  0  0  0
  2 39  1  0  0  0
  2 40  1  0  0  0
  3  4  1  0  0  0
  3 41  1  0  0  0
  3 42  1  0  0  0
  4  5  1  0  0  0
  4 43  1  0  0  0
  4 44  1  0  0  0
  5  6  1  0  0  0
  5 45  1  0  0  0
  5 46  1  0  0  0
  6  7  1  0  0  0
  6 47  1  0  0  0
  6 48  1  0  0  0
  7  8  1  0  0  0
  7 49  1  0  0  0
  7 50  1  0  0  0
  8  9  1  0  0  0
  8 51  1  0  0  0
  8 52  1  0  0  0
  9 10  1  0  0  0
  9 53  1  0  0  0
  9 54  1  0  0  0
 10 11  1  0  0  0
 10 55  1  0  0  0
 10 56  1  0  0  0
 11 12  1  0  0  0
 11 57  1  0  0  0
 11 58  1  0  0  0
 12 13  1  0  0  0
 12 59  1  0  0  0
 12 60  1  0  0  0
 13 14  1  0  0  0
 13 61  1  0  0  0
 13 62  1  0  0  0
 14 15  1  0  0  0
 14 63  1  0  0  0
 14 64  1  0  0  0
 15 16  1  0  0  0
 15 65  1  0  0  0
 15 66  1  0  0  0
 16 17  1  0  0  0
 16 67  1  0  0  0
 16 68  1  0  0  0
 17 18  1  0  0  0
 17 69  1  0  0  0
 17 70  1  0  0  0
 18 19  1  0  0  0
 18 71  1  0  0  0
 18 72  1  0  0  0
 19 20  1  0  0  0
 19 73  1  0  0  0
 19 74  1  0  0  0
 20 21  1  0  0  0
 20 75  1  0  0  0
 20 76  1  0  0  0
 21 22  1  0  0  0
 21 77  1  0  0  0
 21 78  1  0  0  0
 22 23  1  0  0  0
 22 79  1  0  0  0
 22 80  1  0  0  0
 23 24  1  0  0  0
 23 81  1  0  0  0
 23 82  1  0  0  0
 24 25  1  0  0  0
 24 83  1  0  0  0
 24 84  1  0  0  0
 25 26  1  0  0  0
 25 85  1  0  0  0
 25 86  1  0  0  0
 26 27  1  0  0  0
 26 87  1  0  0  0
 26 88  1  0  0  0
 27 28  1  0  0  0
 27 89  1  0  0  0
 27 90  1  0  0  0
 28 29  1  0  0  0
 28 91  1  0  0  0
 28 92  1  0  0  0
 29 30  1  0  0  0
 29 93  1  0  0  0
 29 94  1  0  0  0
 30 31  1  0  0  0
 30 95  1  0  0  0
 30 96  1  0  0  0
 31 32  1  0  0  0
 31 97  1  0  0  0
 31 98  1  0  0  0
 32 33  1  0  0  0
 32 99  1  0  0  0
 32100  1  0  0  0
 33 34  2  0  0  0
 33 35  1  0  0  0
M  CHG  1  35  -1
M  END
> <i_m_Spin_multiplicity>
1

> <s_j_Task>
Single Point

> <s_j_QM_Method>
DFT(b3lyp-d3)

> <s_j_QM_Basis>
6-31g**

> <i_j_Number_of_canonical_orbitals>
850

> <i_j_Geometry_convergence_category>
1

> <r_j_Gas_Phase_Energy>
-1447.40404299776

> <r_j_Final_Energy>
-1447.40404299776

> <r_j_HOMO>
-0.00601098532084288

> <r_j_LUMO>
0.112475320436776

> <r_j_Polarizability>
374.650938458036

> <r_j_QM_Dipole_(debye)>
73.4094956890994

> <r_j_QM_Dipole_X_(debye)>
-68.8617133728368

> <r_j_QM_Dipole_Y_(debye)>
-6.56712691861454

> <r_j_QM_Dipole_Z_(debye)>
24.5742005509838

> <r_j_Lowest_Frequency_(cm-1)>
-12.0984948667994

> <r_j_Highest_Frequency_(cm-1)>
3106.23962044287

> <r_j_2nd_Lowest_Frequency_(cm-1)>
7.76480520751313

> <i_j_Num_Negative_Frequencies>
1

> <r_j_Zero_Point_Energy_(kcal/mol)>
588.186632330821

> <r_j_Entropy_(cal/mol/K)_298.15K_1.00E+00atm>
245.134030028034

> <r_j_Enthalpy_(kcal/mol)_298.15K_1.00E+00atm>
27.082249747155

> <r_j_Free_Energy_(kcal/mol)_298.15K_1.00E+00atm>
-46.0044613057033

> <r_j_Internal_Energy_(kcal/mol)_298.15K_1.00E+00atm>
26.4897641583277

> <r_j_Heat_Capacity_(cal/mol/K)_298.15K_1.00E+00atm>
159.092108064927

> <r_j_ln(Q)_298.15K_1.00E+00atm>
77.6465490017427

> <r_j_Total_Internal_Energy_(au)_298.15K_1.00E+00atm>
-1446.42449380229

> <r_j_Total_Enthalpy_(au)_298.15K_1.00E+00atm>
-1446.42354961639

> <r_j_Total_Free_Energy_(au)_298.15K_1.00E+00atm>
-1446.54002070495

> <r_epik_Ionization_Penalty>
  0.0049

> <r_epik_Ionization_Penalty_Charging>
  0.0049

> <r_epik_Ionization_Penalty_Neutral>
  0.0000

> <r_epik_State_Penalty>
  0.0035

> <r_epik_Charging_Adjusted_Penalty>
0.00839777765143097

> <i_epik_Tot_Q>
-1

> <i_epik_Tot_abs_Q>
1

> <s_lp_Force_Field>
S-OPLS

> <r_lp_Energy>
21.553662

> <b_lp_Chiralities_Consistent>
1

$$$$
