182210_2-Deoxomatairesinol
                    3D
 Schrodinger Suite 2021-3.
 49 51  0  0  1  0            999 V2000
   -0.2980    3.8478    3.0665 C   0  0  0  0  0  0
   -0.8947    4.2490    1.8420 O   0  0  0  0  0  0
   -0.9446    3.3366    0.8148 C   0  0  0  0  0  0
   -1.4097    3.8818   -0.4007 C   0  0  0  0  0  0
   -1.5052    3.0636   -1.5179 C   0  0  0  0  0  0
   -1.1335    1.7168   -1.4349 C   0  0  0  0  0  0
   -0.6683    1.1671   -0.2406 C   0  0  0  0  0  0
   -0.5849    1.9962    0.8929 C   0  0  0  0  0  0
   -0.1674   -0.2603   -0.1714 C   0  0  0  0  0  0
    1.3636   -0.3396   -0.0209 C   0  0  0  0  0  0
    1.9356   -1.7684   -0.0659 C   0  0  0  0  0  0
    3.2694   -1.6224   -0.5363 O   0  0  0  0  0  0
    3.1827   -0.6721   -1.5990 C   0  0  0  0  0  0
    2.1563    0.3924   -1.1438 C   0  0  0  0  0  0
    2.8051    1.6971   -0.6322 C   0  0  0  0  0  0
    3.4423    2.5177   -1.7293 C   0  0  0  0  0  0
    4.8293    2.4766   -1.9478 C   0  0  0  0  0  0
    5.3998    3.1940   -2.9957 C   0  0  0  0  0  0
    4.5927    3.9721   -3.8472 C   0  0  0  0  0  0
    3.2205    4.0189   -3.6295 C   0  0  0  0  0  0
    2.6514    3.2963   -2.5789 C   0  0  0  0  0  0
    5.1476    4.6786   -4.8741 O   0  0  0  0  0  0
    6.7389    3.2360   -3.3134 O   0  0  0  0  0  0
    7.6362    2.4550   -2.5399 C   0  0  0  0  0  0
   -1.7621    5.1954   -0.4806 O   0  0  0  0  0  0
   -0.3009    4.7285    3.7106 H   0  0  0  0  0  0
    0.7352    3.5100    2.9136 H   0  0  0  0  0  0
   -0.8714    3.0457    3.5484 H   0  0  0  0  0  0
   -1.8665    3.4949   -2.4455 H   0  0  0  0  0  0
   -1.2013    1.0926   -2.3213 H   0  0  0  0  0  0
   -0.2216    1.5826    1.8275 H   0  0  0  0  0  0
   -0.6379   -0.7902    0.6679 H   0  0  0  0  0  0
   -0.4634   -0.7942   -1.0828 H   0  0  0  0  0  0
    1.6408    0.1082    0.9418 H   0  0  0  0  0  0
    1.9685   -2.2655    0.9081 H   0  0  0  0  0  0
    1.3453   -2.3985   -0.7565 H   0  0  0  0  0  0
    4.1829   -0.2685   -1.7775 H   0  0  0  0  0  0
    2.8441   -1.1671   -2.5240 H   0  0  0  0  0  0
    1.4891    0.6507   -1.9726 H   0  0  0  0  0  0
    2.0292    2.2896   -0.1341 H   0  0  0  0  0  0
    3.5479    1.4358    0.1327 H   0  0  0  0  0  0
    5.4535    1.8858   -1.2863 H   0  0  0  0  0  0
    2.6143    4.6288   -4.2912 H   0  0  0  0  0  0
    1.5771    3.3399   -2.4166 H   0  0  0  0  0  0
    6.1017    4.5090   -4.8517 H   0  0  0  0  0  0
    8.6270    2.6133   -2.9690 H   0  0  0  0  0  0
    7.3842    1.3877   -2.5904 H   0  0  0  0  0  0
    7.6412    2.7726   -1.4892 H   0  0  0  0  0  0
   -1.6010    5.5875    0.3912 H   0  0  0  0  0  0
  1  2  1  0  0  0
  1 26  1  0  0  0
  1 27  1  0  0  0
  1 28  1  0  0  0
  2  3  1  0  0  0
  3  8  1  0  0  0
  3  4  2  0  0  0
  4  5  1  0  0  0
  4 25  1  0  0  0
  5  6  2  0  0  0
  5 29  1  0  0  0
  6  7  1  0  0  0
  6 30  1  0  0  0
  7  8  2  0  0  0
  7  9  1  0  0  0
  8 31  1  0  0  0
  9 10  1  0  0  0
  9 32  1  0  0  0
  9 33  1  0  0  0
 10 14  1  0  0  0
 10 11  1  0  0  0
 10 34  1  0  0  0
 11 12  1  0  0  0
 11 35  1  0  0  0
 11 36  1  0  0  0
 12 13  1  0  0  0
 13 14  1  0  0  0
 13 37  1  0  0  0
 13 38  1  0  0  0
 14 15  1  0  0  0
 14 39  1  0  0  0
 15 16  1  0  0  0
 15 40  1  0  0  0
 15 41  1  0  0  0
 16 21  1  0  0  0
 16 17  2  0  0  0
 17 18  1  0  0  0
 17 42  1  0  0  0
 18 19  2  0  0  0
 18 23  1  0  0  0
 19 20  1  0  0  0
 19 22  1  0  0  0
 20 21  2  0  0  0
 20 43  1  0  0  0
 21 44  1  0  0  0
 22 45  1  0  0  0
 23 24  1  0  0  0
 24 46  1  0  0  0
 24 47  1  0  0  0
 24 48  1  0  0  0
 25 49  1  0  0  0
M  END
>  <i_m_Spin_multiplicity> (1)
1

>  <s_j_Task> (1)
Single Point

>  <s_j_QM_Method> (1)
DFT(b3lyp-d3)

>  <s_j_QM_Basis> (1)
cc-pvtz(-f)

>  <i_j_Number_of_canonical_orbitals> (1)
776

>  <i_j_Geometry_convergence_category> (1)
3

>  <r_j_Gas_Phase_Energy> (1)
-1153.09924766415

>  <r_j_Final_Energy> (1)
-1153.09924766415

>  <r_j_HOMO> (1)
-0.174921837940424

>  <r_j_LUMO> (1)
0.00268546019412175

>  <r_j_Polarizability> (1)
246.01049659029

>  <r_j_QM_Dipole_(debye)> (1)
3.75583500141698

>  <r_j_QM_Dipole_X_(debye)> (1)
1.26857779823543

>  <r_j_QM_Dipole_Y_(debye)> (1)
-0.744267020608167

>  <r_j_QM_Dipole_Z_(debye)> (1)
3.45587521906218

>  <r_j_Lowest_Frequency_(cm-1)> (1)
25.9362451297858

>  <r_j_Highest_Frequency_(cm-1)> (1)
3719.33628782827

>  <r_j_2nd_Lowest_Frequency_(cm-1)> (1)
42.1615891859781

>  <i_j_Num_Negative_Frequencies> (1)
0

>  <r_j_Zero_Point_Energy_(kcal/mol)> (1)
257.078456249797

>  <r_j_Entropy_(cal/mol/K)_298.15K_1.00E+00atm> (1)
151.783703786244

>  <r_j_Enthalpy_(kcal/mol)_298.15K_1.00E+00atm> (1)
14.5232212765044

>  <r_j_Free_Energy_(kcal/mol)_298.15K_1.00E+00atm> (1)
-30.7310900073644

>  <r_j_Internal_Energy_(kcal/mol)_298.15K_1.00E+00atm> (1)
13.9307356876771

>  <r_j_Heat_Capacity_(cal/mol/K)_298.15K_1.00E+00atm> (1)
89.798087561241

>  <r_j_ln(Q)_298.15K_1.00E+00atm> (1)
51.8680801472174

>  <r_j_Total_Internal_Energy_(au)_298.15K_1.00E+00atm> (1)
-1152.66736702347

>  <r_j_Total_Enthalpy_(au)_298.15K_1.00E+00atm> (1)
-1152.66642283758

>  <r_j_Total_Free_Energy_(au)_298.15K_1.00E+00atm> (1)
-1152.73854017357

>  <r_lp_tautomer_probability> (1)
0.999999999999776

>  <r_epik_Ionization_Penalty> (1)
  0.0007

>  <r_epik_Ionization_Penalty_Charging> (1)
  0.0000

>  <r_epik_Ionization_Penalty_Neutral> (1)
  0.0007

>  <r_epik_State_Penalty> (1)
  0.0005

>  <r_epik_Charging_Adjusted_Penalty> (1)
0.000458362077783783

>  <i_epik_Tot_Q> (1)
0

>  <i_epik_Tot_abs_Q> (1)
0

>  <s_lp_Force_Field> (1)
S-OPLS

>  <r_lp_Energy> (1)
25.34756

>  <b_lp_Chiralities_Consistent> (1)
1

$$$$
