18309_1,1,3-trimethylcyclohexane
                    3D
 Schrodinger Suite 2021-3.
 27 27  0  0  1  0            999 V2000
   -0.0467   -0.0034   -0.0055 C   0  0  0  0  0  0
    1.4856    0.0087   -0.0313 C   0  0  0  0  0  0
    2.0244    0.7302   -1.2789 C   0  0  0  0  0  0
    3.5584    0.7879   -1.2926 C   0  0  0  0  0  0
    4.1013    1.4322   -0.0081 C   0  0  0  0  0  0
    3.6011    0.7458    1.2869 C   0  0  0  0  0  0
    2.0553    0.6599    1.2422 C   0  0  0  0  0  0
    4.2216   -0.6581    1.4340 C   0  0  0  0  0  0
    4.0220    1.5902    2.5024 C   0  0  0  0  0  0
   -0.4434    1.0188    0.0322 H   0  0  0  0  0  0
   -0.4269   -0.5398    0.8710 H   0  0  0  0  0  0
   -0.4561   -0.4862   -0.8998 H   0  0  0  0  0  0
    1.8291   -1.0352   -0.0720 H   0  0  0  0  0  0
    1.6505    0.2399   -2.1866 H   0  0  0  0  0  0
    1.6245    1.7557   -1.2904 H   0  0  0  0  0  0
    3.9609   -0.2273   -1.4034 H   0  0  0  0  0  0
    3.9080    1.3516   -2.1659 H   0  0  0  0  0  0
    5.1990    1.4398   -0.0178 H   0  0  0  0  0  0
    3.7835    2.4846    0.0143 H   0  0  0  0  0  0
    1.6484    1.6801    1.3129 H   0  0  0  0  0  0
    1.6939    0.1232    2.1302 H   0  0  0  0  0  0
    3.8688   -1.1412    2.3522 H   0  0  0  0  0  0
    5.3143   -0.5932    1.4888 H   0  0  0  0  0  0
    3.9730   -1.3186    0.5992 H   0  0  0  0  0  0
    3.6743    1.1351    3.4371 H   0  0  0  0  0  0
    3.6039    2.6018    2.4464 H   0  0  0  0  0  0
    5.1130    1.6810    2.5602 H   0  0  0  0  0  0
  1  2  1  0  0  0
  1 10  1  0  0  0
  1 11  1  0  0  0
  1 12  1  0  0  0
  2  7  1  0  0  0
  2  3  1  0  0  0
  2 13  1  0  0  0
  3  4  1  0  0  0
  3 14  1  0  0  0
  3 15  1  0  0  0
  4  5  1  0  0  0
  4 16  1  0  0  0
  4 17  1  0  0  0
  5  6  1  0  0  0
  5 18  1  0  0  0
  5 19  1  0  0  0
  6  7  1  0  0  0
  6  8  1  0  0  0
  6  9  1  0  0  0
  7 20  1  0  0  0
  7 21  1  0  0  0
  8 22  1  0  0  0
  8 23  1  0  0  0
  8 24  1  0  0  0
  9 25  1  0  0  0
  9 26  1  0  0  0
  9 27  1  0  0  0
M  END
>  <i_m_Spin_multiplicity> (1)
1

>  <s_j_Task> (1)
Single Point

>  <s_j_QM_Method> (1)
DFT(b3lyp-d3)

>  <s_j_QM_Basis> (1)
cc-pvtz(-f)

>  <i_j_Number_of_canonical_orbitals> (1)
365

>  <i_j_Geometry_convergence_category> (1)
0

>  <r_j_Gas_Phase_Energy> (1)
-353.965510509803

>  <r_j_Final_Energy> (1)
-353.965510509803

>  <r_j_HOMO> (1)
-0.28970734718128

>  <r_j_LUMO> (1)
0.0254557854683409

>  <r_j_Polarizability> (1)
105.284428327427

>  <r_j_QM_Dipole_(debye)> (1)
0.149708165344545

>  <r_j_QM_Dipole_X_(debye)> (1)
0.0574900277770399

>  <r_j_QM_Dipole_Y_(debye)> (1)
-0.0825419884605185

>  <r_j_QM_Dipole_Z_(debye)> (1)
-0.110879446328021

>  <r_j_Lowest_Frequency_(cm-1)> (1)
163.033852340711

>  <r_j_Highest_Frequency_(cm-1)> (1)
3061.49413221508

>  <r_j_2nd_Lowest_Frequency_(cm-1)> (1)
177.689347722087

>  <i_j_Num_Negative_Frequencies> (1)
0

>  <r_j_Zero_Point_Energy_(kcal/mol)> (1)
158.98352238501

>  <r_j_Entropy_(cal/mol/K)_298.15K_1.00E+00atm> (1)
90.6483988911119

>  <r_j_Enthalpy_(kcal/mol)_298.15K_1.00E+00atm> (1)
6.43323881306182

>  <r_j_Free_Energy_(kcal/mol)_298.15K_1.00E+00atm> (1)
-20.5935813163232

>  <r_j_Internal_Energy_(kcal/mol)_298.15K_1.00E+00atm> (1)
5.84075322423454

>  <r_j_Heat_Capacity_(cal/mol/K)_298.15K_1.00E+00atm> (1)
38.9875400938485

>  <r_j_ln(Q)_298.15K_1.00E+00atm> (1)
34.7579446735316

>  <r_j_Total_Internal_Energy_(au)_298.15K_1.00E+00atm> (1)
-353.702846305533

>  <r_j_Total_Enthalpy_(au)_298.15K_1.00E+00atm> (1)
-353.701902119641

>  <r_j_Total_Free_Energy_(au)_298.15K_1.00E+00atm> (1)
-353.744972099333

>  <r_lp_tautomer_probability> (1)
1

>  <r_epik_Ionization_Penalty> (1)
  0.0000

>  <r_epik_Ionization_Penalty_Charging> (1)
  0.0000

>  <r_epik_Ionization_Penalty_Neutral> (1)
  0.0000

>  <r_epik_State_Penalty> (1)
  0.0000

>  <r_epik_Charging_Adjusted_Penalty> (1)
0

>  <i_epik_Tot_Q> (1)
0

>  <i_epik_Tot_abs_Q> (1)
0

>  <s_lp_Force_Field> (1)
S-OPLS

>  <r_lp_Energy> (1)
15.1408

>  <b_lp_Chiralities_Consistent> (1)
1

$$$$
