18314_3-methyl-4-ethylhexane
                    3D
 Schrodinger Suite 2021-3.
 29 28  0  0  1  0            999 V2000
   -2.2122   -0.6390    1.2492 C   0  0  0  0  0  0
   -0.6835   -0.7572    1.2188 C   0  0  0  0  0  0
   -0.0253   -0.1040   -0.0137 C   0  0  0  0  0  0
   -0.5036   -0.7526   -1.3250 C   0  0  0  0  0  0
    1.5286   -0.0568    0.0728 C   0  0  0  0  0  0
    2.1720   -1.4613    0.0779 C   0  0  0  0  0  0
    3.6920   -1.4649   -0.1288 C   0  0  0  0  0  0
    2.0500    0.7920    1.2548 C   0  0  0  0  0  0
    1.4676    2.2066    1.3489 C   0  0  0  0  0  0
   -2.6187   -1.0369    2.1848 H   0  0  0  0  0  0
   -2.6815   -1.1897    0.4280 H   0  0  0  0  0  0
   -2.5270    0.4083    1.1687 H   0  0  0  0  0  0
   -0.2811   -0.2972    2.1293 H   0  0  0  0  0  0
   -0.4025   -1.8175    1.2635 H   0  0  0  0  0  0
   -0.3662    0.9401   -0.0442 H   0  0  0  0  0  0
   -0.3782   -1.8409   -1.3121 H   0  0  0  0  0  0
    0.0552   -0.3629   -2.1832 H   0  0  0  0  0  0
   -1.5632   -0.5502   -1.5051 H   0  0  0  0  0  0
    1.8631    0.4479   -0.8486 H   0  0  0  0  0  0
    1.9348   -1.9673    1.0229 H   0  0  0  0  0  0
    1.7188   -2.0686   -0.7132 H   0  0  0  0  0  0
    4.0712   -2.4882   -0.2178 H   0  0  0  0  0  0
    4.2245   -0.9918    0.7018 H   0  0  0  0  0  0
    3.9640   -0.9286   -1.0456 H   0  0  0  0  0  0
    1.8717    0.2589    2.1982 H   0  0  0  0  0  0
    3.1389    0.8743    1.1645 H   0  0  0  0  0  0
    1.9877    2.7923    2.1140 H   0  0  0  0  0  0
    0.4050    2.1980    1.6106 H   0  0  0  0  0  0
    1.5694    2.7395    0.3961 H   0  0  0  0  0  0
  1  2  1  0  0  0
  1 10  1  0  0  0
  1 11  1  0  0  0
  1 12  1  0  0  0
  2  3  1  0  0  0
  2 13  1  0  0  0
  2 14  1  0  0  0
  3  4  1  0  0  0
  3  5  1  0  0  0
  3 15  1  0  0  0
  4 16  1  0  0  0
  4 17  1  0  0  0
  4 18  1  0  0  0
  5  6  1  0  0  0
  5  8  1  0  0  0
  5 19  1  0  0  0
  6  7  1  0  0  0
  6 20  1  0  0  0
  6 21  1  0  0  0
  7 22  1  0  0  0
  7 23  1  0  0  0
  7 24  1  0  0  0
  8  9  1  0  0  0
  8 25  1  0  0  0
  8 26  1  0  0  0
  9 27  1  0  0  0
  9 28  1  0  0  0
  9 29  1  0  0  0
M  END
>  <i_m_Spin_multiplicity> (1)
1

>  <s_j_Task> (1)
Single Point

>  <s_j_QM_Method> (1)
DFT(b3lyp-d3)

>  <s_j_QM_Basis> (1)
cc-pvtz(-f)

>  <i_j_Number_of_canonical_orbitals> (1)
385

>  <i_j_Geometry_convergence_category> (1)
3

>  <r_j_Gas_Phase_Energy> (1)
-355.166497637314

>  <r_j_Final_Energy> (1)
-355.166497637314

>  <r_j_HOMO> (1)
-0.300821113081361

>  <r_j_LUMO> (1)
0.0257390182466053

>  <r_j_Polarizability> (1)
109.720351545387

>  <r_j_QM_Dipole_(debye)> (1)
0.0649078098971772

>  <r_j_QM_Dipole_X_(debye)> (1)
0.0419235315418981

>  <r_j_QM_Dipole_Y_(debye)> (1)
0.0123374273785686

>  <r_j_QM_Dipole_Z_(debye)> (1)
0.0479919698947867

>  <r_j_Lowest_Frequency_(cm-1)> (1)
81.2398373916499

>  <r_j_Highest_Frequency_(cm-1)> (1)
3058.51512286127

>  <r_j_2nd_Lowest_Frequency_(cm-1)> (1)
113.609735164269

>  <i_j_Num_Negative_Frequencies> (1)
0

>  <r_j_Zero_Point_Energy_(kcal/mol)> (1)
171.866336497153

>  <r_j_Entropy_(cal/mol/K)_298.15K_1.00E+00atm> (1)
101.204578580117

>  <r_j_Enthalpy_(kcal/mol)_298.15K_1.00E+00atm> (1)
7.7554266668585

>  <r_j_Free_Energy_(kcal/mol)_298.15K_1.00E+00atm> (1)
-22.4187184368034

>  <r_j_Internal_Energy_(kcal/mol)_298.15K_1.00E+00atm> (1)
7.16294107803123

>  <r_j_Heat_Capacity_(cal/mol/K)_298.15K_1.00E+00atm> (1)
43.984123299105

>  <r_j_ln(Q)_298.15K_1.00E+00atm> (1)
37.8384198022057

>  <r_j_Total_Internal_Energy_(au)_298.15K_1.00E+00atm> (1)
-354.881196321343

>  <r_j_Total_Enthalpy_(au)_298.15K_1.00E+00atm> (1)
-354.880252135451

>  <r_j_Total_Free_Energy_(au)_298.15K_1.00E+00atm> (1)
-354.928337696779

>  <r_lp_tautomer_probability> (1)
1

>  <r_epik_Ionization_Penalty> (1)
  0.0000

>  <r_epik_Ionization_Penalty_Charging> (1)
  0.0000

>  <r_epik_Ionization_Penalty_Neutral> (1)
  0.0000

>  <r_epik_State_Penalty> (1)
  0.0000

>  <r_epik_Charging_Adjusted_Penalty> (1)
0

>  <i_epik_Tot_Q> (1)
0

>  <i_epik_Tot_abs_Q> (1)
0

>  <s_lp_Force_Field> (1)
S-OPLS

>  <r_lp_Energy> (1)
7.88872

>  <b_lp_Chiralities_Consistent> (1)
1

$$$$
