18371935_1,4-Dimethyl-2-ethylcyclohexane
                    3D
 Schrodinger Suite 2021-3.
 30 30  0  0  1  0            999 V2000
   -0.6285    1.4773   -0.0544 C   0  0  0  0  0  0
   -0.0399    0.0619   -0.0065 C   0  0  0  0  0  0
    1.5006    0.0012    0.0276 C   0  0  0  0  0  0
    2.0697    0.7549    1.2465 C   0  0  0  0  0  0
    3.6043    0.7305    1.3272 C   0  0  0  0  0  0
    4.1081   -0.7193    1.2988 C   0  0  0  0  0  0
    3.5716   -1.4735    0.0786 C   0  0  0  0  0  0
    2.0332   -1.4552   -0.0035 C   0  0  0  0  0  0
    1.5675   -2.2440   -1.2356 C   0  0  0  0  0  0
    4.1134    1.4864    2.5584 C   0  0  0  0  0  0
   -1.7132    1.4426   -0.1989 H   0  0  0  0  0  0
   -0.2015    2.0518   -0.8851 H   0  0  0  0  0  0
   -0.4399    2.0366    0.8666 H   0  0  0  0  0  0
   -0.4349   -0.4716    0.8702 H   0  0  0  0  0  0
   -0.4013   -0.4853   -0.8835 H   0  0  0  0  0  0
    1.8749    0.5029   -0.8811 H   0  0  0  0  0  0
    1.7306    1.7969    1.2363 H   0  0  0  0  0  0
    1.6581    0.3053    2.1642 H   0  0  0  0  0  0
    3.9928    1.2352    0.4284 H   0  0  0  0  0  0
    5.2053   -0.7395    1.3088 H   0  0  0  0  0  0
    3.7780   -1.2278    2.2171 H   0  0  0  0  0  0
    3.9786   -1.0197   -0.8375 H   0  0  0  0  0  0
    3.9244   -2.5125    0.0902 H   0  0  0  0  0  0
    1.6468   -1.9620    0.8959 H   0  0  0  0  0  0
    1.8474   -1.7217   -2.1590 H   0  0  0  0  0  0
    0.4852   -2.3963   -1.2527 H   0  0  0  0  0  0
    2.0370   -3.2334   -1.2605 H   0  0  0  0  0  0
    3.7477    1.0177    3.4804 H   0  0  0  0  0  0
    3.7730    2.5279    2.5575 H   0  0  0  0  0  0
    5.2083    1.4898    2.5988 H   0  0  0  0  0  0
  1  2  1  0  0  0
  1 11  1  0  0  0
  1 12  1  0  0  0
  1 13  1  0  0  0
  2  3  1  0  0  0
  2 14  1  0  0  0
  2 15  1  0  0  0
  3  8  1  0  0  0
  3  4  1  0  0  0
  3 16  1  0  0  0
  4  5  1  0  0  0
  4 17  1  0  0  0
  4 18  1  0  0  0
  5  6  1  0  0  0
  5 10  1  0  0  0
  5 19  1  0  0  0
  6  7  1  0  0  0
  6 20  1  0  0  0
  6 21  1  0  0  0
  7  8  1  0  0  0
  7 22  1  0  0  0
  7 23  1  0  0  0
  8  9  1  0  0  0
  8 24  1  0  0  0
  9 25  1  0  0  0
  9 26  1  0  0  0
  9 27  1  0  0  0
 10 28  1  0  0  0
 10 29  1  0  0  0
 10 30  1  0  0  0
M  END
>  <i_m_Spin_multiplicity> (1)
1

>  <s_j_Task> (1)
Single Point

>  <s_j_QM_Method> (1)
DFT(b3lyp-d3)

>  <s_j_QM_Basis> (1)
cc-pvtz(-f)

>  <i_j_Number_of_canonical_orbitals> (1)
406

>  <i_j_Geometry_convergence_category> (1)
0

>  <r_j_Gas_Phase_Energy> (1)
-393.293750448473

>  <r_j_Final_Energy> (1)
-393.293750448473

>  <r_j_HOMO> (1)
-0.292339177239196

>  <r_j_LUMO> (1)
0.0283356803341722

>  <r_j_Polarizability> (1)
117.966214642477

>  <r_j_QM_Dipole_(debye)> (1)
0.0776060789418993

>  <r_j_QM_Dipole_X_(debye)> (1)
-0.000629874444229351

>  <r_j_QM_Dipole_Y_(debye)> (1)
-0.0370107659760526

>  <r_j_QM_Dipole_Z_(debye)> (1)
-0.0682093098395423

>  <r_j_Lowest_Frequency_(cm-1)> (1)
108.016116477459

>  <r_j_Highest_Frequency_(cm-1)> (1)
3062.22996438237

>  <r_j_2nd_Lowest_Frequency_(cm-1)> (1)
125.67122712293

>  <i_j_Num_Negative_Frequencies> (1)
0

>  <r_j_Zero_Point_Energy_(kcal/mol)> (1)
176.889689000063

>  <r_j_Entropy_(cal/mol/K)_298.15K_1.00E+00atm> (1)
98.3702858813677

>  <r_j_Enthalpy_(kcal/mol)_298.15K_1.00E+00atm> (1)
7.34739750536043

>  <r_j_Free_Energy_(kcal/mol)_298.15K_1.00E+00atm> (1)
-21.9817032301693

>  <r_j_Internal_Energy_(kcal/mol)_298.15K_1.00E+00atm> (1)
6.75491191653316

>  <r_j_Heat_Capacity_(cal/mol/K)_298.15K_1.00E+00atm> (1)
43.6607712568879

>  <r_j_ln(Q)_298.15K_1.00E+00atm> (1)
37.1008234540834

>  <r_j_Total_Internal_Energy_(au)_298.15K_1.00E+00atm> (1)
-393.001094146543

>  <r_j_Total_Enthalpy_(au)_298.15K_1.00E+00atm> (1)
-393.00014996065

>  <r_j_Total_Free_Energy_(au)_298.15K_1.00E+00atm> (1)
-393.04688885805

>  <r_lp_tautomer_probability> (1)
1

>  <r_epik_Ionization_Penalty> (1)
  0.0000

>  <r_epik_Ionization_Penalty_Charging> (1)
  0.0000

>  <r_epik_Ionization_Penalty_Neutral> (1)
  0.0000

>  <r_epik_State_Penalty> (1)
  0.0000

>  <r_epik_Charging_Adjusted_Penalty> (1)
0

>  <i_epik_Tot_Q> (1)
0

>  <i_epik_Tot_abs_Q> (1)
0

>  <s_lp_Force_Field> (1)
S-OPLS

>  <r_lp_Energy> (1)
14.019635

>  <b_lp_Chiralities_Consistent> (1)
1

$$$$
