185654_3-Cyclopentene-1,2-dione
                    3D
 Schrodinger Suite 2021-3.
 11 11  0  0  1  0            999 V2000
   -0.2519   -2.3127   -0.5723 C   0  0  0  0  0  0
   -0.3839   -0.8973   -1.0789 C   0  0  0  0  0  0
   -0.1052    0.0432   -0.1574 C   0  0  0  0  0  0
    0.2621   -0.5795    1.1281 C   0  0  0  0  0  0
    0.5732   -0.0570    2.1776 O   0  0  0  0  0  0
    0.1743   -2.1176    0.8835 C   0  0  0  0  0  0
    0.4044   -2.9704    1.7044 O   0  0  0  0  0  0
    0.4975   -2.8950   -1.1227 H   0  0  0  0  0  0
   -1.1913   -2.8764   -0.6308 H   0  0  0  0  0  0
   -0.6794   -0.6839   -2.1018 H   0  0  0  0  0  0
   -0.1365    1.1160   -0.3051 H   0  0  0  0  0  0
  1  6  1  0  0  0
  1  2  1  0  0  0
  1  8  1  0  0  0
  1  9  1  0  0  0
  2  3  2  0  0  0
  2 10  1  0  0  0
  3  4  1  0  0  0
  3 11  1  0  0  0
  4  5  2  0  0  0
  4  6  1  0  0  0
  6  7  2  0  0  0
M  END
>  <i_m_Spin_multiplicity> (1)
1

>  <s_j_Task> (1)
Single Point

>  <s_j_QM_Method> (1)
DFT(b3lyp-d3)

>  <s_j_QM_Basis> (1)
cc-pvtz(-f)

>  <i_j_Number_of_canonical_orbitals> (1)
195

>  <i_j_Geometry_convergence_category> (1)
0

>  <r_j_Gas_Phase_Energy> (1)
-343.468885598946

>  <r_j_Final_Energy> (1)
-343.468885598946

>  <r_j_HOMO> (1)
-0.259995116503785

>  <r_j_LUMO> (1)
-0.119522679120869

>  <r_j_Polarizability> (1)
57.7851977955794

>  <r_j_QM_Dipole_(debye)> (1)
5.27553180568989

>  <r_j_QM_Dipole_X_(debye)> (1)
-1.46936193439708

>  <r_j_QM_Dipole_Y_(debye)> (1)
0.311652700317822

>  <r_j_QM_Dipole_Z_(debye)> (1)
-5.05718142179763

>  <r_j_Lowest_Frequency_(cm-1)> (1)
135.312335229394

>  <r_j_Highest_Frequency_(cm-1)> (1)
3177.34534225373

>  <r_j_2nd_Lowest_Frequency_(cm-1)> (1)
298.455029902612

>  <i_j_Num_Negative_Frequencies> (1)
0

>  <r_j_Zero_Point_Energy_(kcal/mol)> (1)
49.0682514218617

>  <r_j_Entropy_(cal/mol/K)_298.15K_1.00E+00atm> (1)
75.7637985045586

>  <r_j_Enthalpy_(kcal/mol)_298.15K_1.00E+00atm> (1)
4.1102415216446

>  <r_j_Free_Energy_(kcal/mol)_298.15K_1.00E+00atm> (1)
-18.4787350024896

>  <r_j_Internal_Energy_(kcal/mol)_298.15K_1.00E+00atm> (1)
3.51775593281732

>  <r_j_Heat_Capacity_(cal/mol/K)_298.15K_1.00E+00atm> (1)
20.5855354406305

>  <r_j_ln(Q)_298.15K_1.00E+00atm> (1)
31.1884969878594

>  <r_j_Total_Internal_Energy_(au)_298.15K_1.00E+00atm> (1)
-343.385084461484

>  <r_j_Total_Enthalpy_(au)_298.15K_1.00E+00atm> (1)
-343.384140275591

>  <r_j_Total_Free_Energy_(au)_298.15K_1.00E+00atm> (1)
-343.420138101288

>  <r_lp_tautomer_probability> (1)
1

>  <r_epik_Ionization_Penalty> (1)
  0.0000

>  <r_epik_Ionization_Penalty_Charging> (1)
  0.0000

>  <r_epik_Ionization_Penalty_Neutral> (1)
  0.0000

>  <r_epik_State_Penalty> (1)
  0.0000

>  <r_epik_Charging_Adjusted_Penalty> (1)
0

>  <i_epik_Tot_Q> (1)
0

>  <i_epik_Tot_abs_Q> (1)
0

>  <s_lp_Force_Field> (1)
S-OPLS

>  <r_lp_Energy> (1)
1.64388

>  <b_lp_Chiralities_Consistent> (1)
1

$$$$
