18625_17ß(H),21a(H)-30-Norhopane
                    3D
 Schrodinger Suite 2021-3.
 79 83  0  0  1  0            999 V2000
   -0.6764    1.4204   -0.2955 C   0  0  0  0  0  0
   -0.0427    0.0257   -0.2711 C   0  0  0  0  0  0
    1.4653    0.0429    0.0067 C   0  0  0  0  0  0
    1.8513    0.5482    1.4367 C   0  0  0  0  0  0
    2.9049   -0.4559    1.9948 C   0  0  0  0  0  0
    3.4365   -1.2030    0.7466 C   0  0  0  0  0  0
    2.1181   -1.3476   -0.0488 C   0  0  0  0  0  0
    2.2858   -2.0446   -1.4002 C   0  0  0  0  0  0
    3.3027   -3.2217   -1.3173 C   0  0  0  0  0  0
    3.5284   -3.7720    0.1198 C   0  0  0  0  0  0
    4.1453   -2.5935    0.9584 C   0  0  0  0  0  0
    4.4154   -3.0099    2.4093 C   0  0  0  0  0  0
    5.3604   -4.2203    2.4479 C   0  0  0  0  0  0
    4.8276   -5.3983    1.6096 C   0  0  0  0  0  0
    4.5670   -4.9942    0.1117 C   0  0  0  0  0  0
    3.9416   -6.2117   -0.6701 C   0  0  0  0  0  0
    4.0725   -7.5679    0.0495 C   0  0  0  0  0  0
    5.4882   -7.6752    0.6329 C   0  0  0  0  0  0
    5.5997   -6.7594    1.8938 C   0  0  0  0  0  0
    7.1094   -6.5943    2.1998 C   0  0  0  0  0  0
    7.8156   -7.9543    2.3634 C   0  0  0  0  0  0
    7.6143   -8.8800    1.1549 C   0  0  0  0  0  0
    6.1363   -9.0909    0.7277 C   0  0  0  0  0  0
    5.4100  -10.0823    1.6583 C   0  0  0  0  0  0
    6.1551   -9.7281   -0.6808 C   0  0  0  0  0  0
    4.9023   -7.3373    3.1532 C   0  0  0  0  0  0
    5.8885   -4.6055   -0.6000 C   0  0  0  0  0  0
    2.1615   -4.2702    0.7044 C   0  0  0  0  0  0
    4.4426   -0.2752    0.0226 C   0  0  0  0  0  0
   -1.7509    1.3699   -0.5008 H   0  0  0  0  0  0
   -0.2173    2.0452   -1.0706 H   0  0  0  0  0  0
   -0.5444    1.9350    0.6625 H   0  0  0  0  0  0
   -0.5378   -0.5927    0.4914 H   0  0  0  0  0  0
   -0.2247   -0.4706   -1.2337 H   0  0  0  0  0  0
    1.9319    0.6902   -0.7491 H   0  0  0  0  0  0
    2.2512    1.5660    1.4006 H   0  0  0  0  0  0
    0.9704    0.5869    2.0873 H   0  0  0  0  0  0
    3.6967    0.0431    2.5635 H   0  0  0  0  0  0
    2.4210   -1.1642    2.6756 H   0  0  0  0  0  0
    1.4705   -1.9824    0.5646 H   0  0  0  0  0  0
    1.3102   -2.4028   -1.7480 H   0  0  0  0  0  0
    2.6282   -1.3269   -2.1564 H   0  0  0  0  0  0
    2.9888   -4.0293   -1.9872 H   0  0  0  0  0  0
    4.2636   -2.8678   -1.7006 H   0  0  0  0  0  0
    5.1409   -2.4501    0.5300 H   0  0  0  0  0  0
    4.8633   -2.1742    2.9601 H   0  0  0  0  0  0
    3.4840   -3.2567    2.9344 H   0  0  0  0  0  0
    6.3531   -3.9161    2.0950 H   0  0  0  0  0  0
    5.4960   -4.5386    3.4880 H   0  0  0  0  0  0
    3.8272   -5.5920    2.0078 H   0  0  0  0  0  0
    2.8901   -6.0303   -0.9068 H   0  0  0  0  0  0
    4.4470   -6.2980   -1.6393 H   0  0  0  0  0  0
    3.3178   -7.6630    0.8401 H   0  0  0  0  0  0
    3.8601   -8.3689   -0.6646 H   0  0  0  0  0  0
    6.1333   -7.1941   -0.1123 H   0  0  0  0  0  0
    7.5910   -6.0381    1.3854 H   0  0  0  0  0  0
    7.2581   -6.0016    3.1091 H   0  0  0  0  0  0
    8.8892   -7.7897    2.5162 H   0  0  0  0  0  0
    7.4621   -8.4509    3.2743 H   0  0  0  0  0  0
    8.1514   -8.4470    0.2984 H   0  0  0  0  0  0
    8.0813   -9.8551    1.3461 H   0  0  0  0  0  0
    5.7762  -11.0994    1.4784 H   0  0  0  0  0  0
    4.3317  -10.0815    1.4654 H   0  0  0  0  0  0
    5.5587   -9.8690    2.7165 H   0  0  0  0  0  0
    6.7981  -10.6155   -0.6845 H   0  0  0  0  0  0
    6.5430   -9.0312   -1.4326 H   0  0  0  0  0  0
    5.1589  -10.0487   -1.0012 H   0  0  0  0  0  0
    5.4701   -8.1284    3.6405 H   0  0  0  0  0  0
    3.9125   -7.7401    2.9189 H   0  0  0  0  0  0
    4.7661   -6.5463    3.8981 H   0  0  0  0  0  0
    6.6000   -5.4319   -0.5748 H   0  0  0  0  0  0
    6.3893   -3.7456   -0.1521 H   0  0  0  0  0  0
    5.7162   -4.3735   -1.6543 H   0  0  0  0  0  0
    1.8704   -3.7225    1.6025 H   0  0  0  0  0  0
    2.1762   -5.3247    0.9862 H   0  0  0  0  0  0
    1.3486   -4.1588   -0.0183 H   0  0  0  0  0  0
    4.7269   -0.6725   -0.9571 H   0  0  0  0  0  0
    5.3570   -0.1863    0.6204 H   0  0  0  0  0  0
    4.0565    0.7365   -0.1290 H   0  0  0  0  0  0
  1  2  1  0  0  0
  1 30  1  0  0  0
  1 31  1  0  0  0
  1 32  1  0  0  0
  2  3  1  0  0  0
  2 33  1  0  0  0
  2 34  1  0  0  0
  3  7  1  0  0  0
  3  4  1  0  0  0
  3 35  1  0  0  0
  4  5  1  0  0  0
  4 36  1  0  0  0
  4 37  1  0  0  0
  5  6  1  0  0  0
  5 38  1  0  0  0
  5 39  1  0  0  0
  6 11  1  0  0  0
  6  7  1  0  0  0
  6 29  1  0  0  0
  7  8  1  0  0  0
  7 40  1  0  0  0
  8  9  1  0  0  0
  8 41  1  0  0  0
  8 42  1  0  0  0
  9 10  1  0  0  0
  9 43  1  0  0  0
  9 44  1  0  0  0
 10 15  1  0  0  0
 10 11  1  0  0  0
 10 28  1  0  0  0
 11 12  1  0  0  0
 11 45  1  0  0  0
 12 13  1  0  0  0
 12 46  1  0  0  0
 12 47  1  0  0  0
 13 14  1  0  0  0
 13 48  1  0  0  0
 13 49  1  0  0  0
 14 19  1  0  0  0
 14 15  1  0  0  0
 14 50  1  0  0  0
 15 16  1  0  0  0
 15 27  1  0  0  0
 16 17  1  0  0  0
 16 51  1  0  0  0
 16 52  1  0  0  0
 17 18  1  0  0  0
 17 53  1  0  0  0
 17 54  1  0  0  0
 18 23  1  0  0  0
 18 19  1  0  0  0
 18 55  1  0  0  0
 19 20  1  0  0  0
 19 26  1  0  0  0
 20 21  1  0  0  0
 20 56  1  0  0  0
 20 57  1  0  0  0
 21 22  1  0  0  0
 21 58  1  0  0  0
 21 59  1  0  0  0
 22 23  1  0  0  0
 22 60  1  0  0  0
 22 61  1  0  0  0
 23 24  1  0  0  0
 23 25  1  0  0  0
 24 62  1  0  0  0
 24 63  1  0  0  0
 24 64  1  0  0  0
 25 65  1  0  0  0
 25 66  1  0  0  0
 25 67  1  0  0  0
 26 68  1  0  0  0
 26 69  1  0  0  0
 26 70  1  0  0  0
 27 71  1  0  0  0
 27 72  1  0  0  0
 27 73  1  0  0  0
 28 74  1  0  0  0
 28 75  1  0  0  0
 28 76  1  0  0  0
 29 77  1  0  0  0
 29 78  1  0  0  0
 29 79  1  0  0  0
M  END
>  <i_m_Spin_multiplicity> (1)
1

>  <s_j_Task> (1)
Single Point

>  <s_j_QM_Method> (1)
DFT(b3lyp-d3)

>  <s_j_QM_Basis> (1)
cc-pvtz(-f)

>  <i_j_Number_of_canonical_orbitals> (1)
1094

>  <i_j_Geometry_convergence_category> (1)
3

>  <r_j_Gas_Phase_Energy> (1)
-1135.65499691038

>  <r_j_Final_Energy> (1)
-1135.65499691038

>  <r_j_HOMO> (1)
-0.284289022235281

>  <r_j_LUMO> (1)
-0.0230828895250448

>  <r_j_Polarizability> (1)
321.310799880196

>  <r_j_QM_Dipole_(debye)> (1)
0.124169470207894

>  <r_j_QM_Dipole_X_(debye)> (1)
0.100959984908458

>  <r_j_QM_Dipole_Y_(debye)> (1)
-0.0722845491288554

>  <r_j_QM_Dipole_Z_(debye)> (1)
0.000287639064053576

>  <r_j_Lowest_Frequency_(cm-1)> (1)
53.8137314097091

>  <r_j_Highest_Frequency_(cm-1)> (1)
3106.57451696611

>  <r_j_2nd_Lowest_Frequency_(cm-1)> (1)
66.4953559297949

>  <i_j_Num_Negative_Frequencies> (1)
0

>  <r_j_Zero_Point_Energy_(kcal/mol)> (1)
464.081795469103

>  <r_j_Entropy_(cal/mol/K)_298.15K_1.00E+00atm> (1)
165.205701286926

>  <r_j_Enthalpy_(kcal/mol)_298.15K_1.00E+00atm> (1)
17.6867424840275

>  <r_j_Free_Energy_(kcal/mol)_298.15K_1.00E+00atm> (1)
-31.5693373546694

>  <r_j_Internal_Energy_(kcal/mol)_298.15K_1.00E+00atm> (1)
17.0942568952002

>  <r_j_Heat_Capacity_(cal/mol/K)_298.15K_1.00E+00atm> (1)
121.034543658206

>  <r_j_ln(Q)_298.15K_1.00E+00atm> (1)
53.2828780142242

>  <r_j_Total_Internal_Energy_(au)_298.15K_1.00E+00atm> (1)
-1134.88819405661

>  <r_j_Total_Enthalpy_(au)_298.15K_1.00E+00atm> (1)
-1134.88724987072

>  <r_j_Total_Free_Energy_(au)_298.15K_1.00E+00atm> (1)
-1134.96574443087

>  <r_lp_tautomer_probability> (1)
1

>  <r_epik_Ionization_Penalty> (1)
  0.0000

>  <r_epik_Ionization_Penalty_Charging> (1)
  0.0000

>  <r_epik_Ionization_Penalty_Neutral> (1)
  0.0000

>  <r_epik_State_Penalty> (1)
  0.0000

>  <r_epik_Charging_Adjusted_Penalty> (1)
0

>  <i_epik_Tot_Q> (1)
0

>  <i_epik_Tot_abs_Q> (1)
0

>  <s_lp_Force_Field> (1)
S-OPLS

>  <r_lp_Energy> (1)
109.142

>  <b_lp_Chiralities_Consistent> (1)
1

$$$$
