18779_1-Methyl chrysene
                    3D
 Schrodinger Suite 2021-3.
 33 36  0  0  1  0            999 V2000
   -0.0437   -0.1062   -0.0004 C   0  0  0  0  0  0
    1.4689   -0.0015   -0.0001 C   0  0  0  0  0  0
    2.1709    1.2434    0.0001 C   0  0  0  0  0  0
    1.4936    2.5026    0.0003 C   0  0  0  0  0  0
    2.1696    3.6857    0.0004 C   0  0  0  0  0  0
    3.5967    3.7434    0.0003 C   0  0  0  0  0  0
    4.3170    2.5257    0.0003 C   0  0  0  0  0  0
    3.6053    1.2576    0.0002 C   0  0  0  0  0  0
    4.2882    0.0177    0.0001 C   0  0  0  0  0  0
    3.5974   -1.1752   -0.0001 C   0  0  0  0  0  0
    2.1943   -1.1812   -0.0002 C   0  0  0  0  0  0
    5.7484    2.5791    0.0002 C   0  0  0  0  0  0
    6.4236    3.7626    0.0000 C   0  0  0  0  0  0
    5.7323    5.0095    0.0000 C   0  0  0  0  0  0
    6.4395    6.2361   -0.0004 C   0  0  0  0  0  0
    5.7699    7.4401   -0.0004 C   0  0  0  0  0  0
    4.3610    7.4511   -0.0002 C   0  0  0  0  0  0
    3.6503    6.2677    0.0001 C   0  0  0  0  0  0
    4.3057    5.0101    0.0002 C   0  0  0  0  0  0
   -0.5564    0.8549   -0.0002 H   0  0  0  0  0  0
   -0.3882   -0.6589    0.8806 H   0  0  0  0  0  0
   -0.3879   -0.6584   -0.8818 H   0  0  0  0  0  0
    0.4108    2.5280    0.0003 H   0  0  0  0  0  0
    1.5958    4.6044    0.0004 H   0  0  0  0  0  0
    5.3706   -0.0113    0.0001 H   0  0  0  0  0  0
    4.1409   -2.1156   -0.0002 H   0  0  0  0  0  0
    1.6627   -2.1297   -0.0003 H   0  0  0  0  0  0
    6.3220    1.6608    0.0002 H   0  0  0  0  0  0
    7.5104    3.7711   -0.0001 H   0  0  0  0  0  0
    7.5263    6.2099   -0.0005 H   0  0  0  0  0  0
    6.3216    8.3755   -0.0007 H   0  0  0  0  0  0
    3.8288    8.3979   -0.0002 H   0  0  0  0  0  0
    2.5678    6.3168    0.0002 H   0  0  0  0  0  0
  1  2  1  0  0  0
  1 20  1  0  0  0
  1 21  1  0  0  0
  1 22  1  0  0  0
  2 11  1  0  0  0
  2  3  2  0  0  0
  3  8  1  0  0  0
  3  4  1  0  0  0
  4  5  2  0  0  0
  4 23  1  0  0  0
  5  6  1  0  0  0
  5 24  1  0  0  0
  6 19  1  0  0  0
  6  7  2  0  0  0
  7  8  1  0  0  0
  7 12  1  0  0  0
  8  9  2  0  0  0
  9 10  1  0  0  0
  9 25  1  0  0  0
 10 11  2  0  0  0
 10 26  1  0  0  0
 11 27  1  0  0  0
 12 13  2  0  0  0
 12 28  1  0  0  0
 13 14  1  0  0  0
 13 29  1  0  0  0
 14 19  1  0  0  0
 14 15  2  0  0  0
 15 16  1  0  0  0
 15 30  1  0  0  0
 16 17  2  0  0  0
 16 31  1  0  0  0
 17 18  1  0  0  0
 17 32  1  0  0  0
 18 19  2  0  0  0
 18 33  1  0  0  0
M  END
>  <i_m_Spin_multiplicity> (1)
1

>  <s_j_Task> (1)
Single Point

>  <s_j_QM_Method> (1)
DFT(b3lyp-d3)

>  <s_j_QM_Basis> (1)
cc-pvtz(-f)

>  <i_j_Number_of_canonical_orbitals> (1)
544

>  <i_j_Geometry_convergence_category> (1)
3

>  <r_j_Gas_Phase_Energy> (1)
-732.736483959401

>  <r_j_Final_Energy> (1)
-732.736483959401

>  <r_j_HOMO> (1)
-0.191987577842925

>  <r_j_LUMO> (1)
-0.0399512531064265

>  <r_j_Polarizability> (1)
235.819066539921

>  <r_j_QM_Dipole_(debye)> (1)
0.488140020948409

>  <r_j_QM_Dipole_X_(debye)> (1)
-0.443308449282865

>  <r_j_QM_Dipole_Y_(debye)> (1)
-0.204347853160328

>  <r_j_QM_Dipole_Z_(debye)> (1)
-0.000503740706627889

>  <r_j_Lowest_Frequency_(cm-1)> (1)
43.3837254298823

>  <r_j_Highest_Frequency_(cm-1)> (1)
3176.62690426076

>  <r_j_2nd_Lowest_Frequency_(cm-1)> (1)
77.8674717467009

>  <i_j_Num_Negative_Frequencies> (1)
0

>  <r_j_Zero_Point_Energy_(kcal/mol)> (1)
168.05761527233

>  <r_j_Entropy_(cal/mol/K)_298.15K_1.00E+00atm> (1)
113.48857778677

>  <r_j_Enthalpy_(kcal/mol)_298.15K_1.00E+00atm> (1)
9.07356194124116

>  <r_j_Free_Energy_(kcal/mol)_298.15K_1.00E+00atm> (1)
-24.7630575258842

>  <r_j_Internal_Energy_(kcal/mol)_298.15K_1.00E+00atm> (1)
8.48107635241389

>  <r_j_Heat_Capacity_(cal/mol/K)_298.15K_1.00E+00atm> (1)
57.6257210124227

>  <r_j_ln(Q)_298.15K_1.00E+00atm> (1)
41.7952064874667

>  <r_j_Total_Internal_Energy_(au)_298.15K_1.00E+00atm> (1)
-732.455151644807

>  <r_j_Total_Enthalpy_(au)_298.15K_1.00E+00atm> (1)
-732.454207458915

>  <r_j_Total_Free_Energy_(au)_298.15K_1.00E+00atm> (1)
-732.508129544692

>  <r_lp_tautomer_probability> (1)
1

>  <r_epik_Ionization_Penalty> (1)
  0.0000

>  <r_epik_Ionization_Penalty_Charging> (1)
  0.0000

>  <r_epik_Ionization_Penalty_Neutral> (1)
  0.0000

>  <r_epik_State_Penalty> (1)
  0.0000

>  <r_epik_Charging_Adjusted_Penalty> (1)
0

>  <i_epik_Tot_Q> (1)
0

>  <i_epik_Tot_abs_Q> (1)
0

>  <s_lp_Force_Field> (1)
S-OPLS

>  <r_lp_Energy> (1)
48.3481

>  <b_lp_Chiralities_Consistent> (1)
1

$$$$
