18784_4-methylpyrene
                    3D
 Schrodinger Suite 2021-3.
 29 32  0  0  1  0            999 V2000
   -0.0310    0.0300    0.0001 C   0  0  0  0  0  0
    1.4775    0.0192    0.0000 C   0  0  0  0  0  0
    2.1817    1.1882   -0.0001 C   0  0  0  0  0  0
    3.6160    1.2322   -0.0001 C   0  0  0  0  0  0
    4.3286    2.4417    0.0000 C   0  0  0  0  0  0
    5.7222    2.4453    0.0002 C   0  0  0  0  0  0
    6.4345    1.2484    0.0001 C   0  0  0  0  0  0
    5.7629    0.0153   -0.0001 C   0  0  0  0  0  0
    4.3361    0.0030   -0.0002 C   0  0  0  0  0  0
    3.6237   -1.2324   -0.0001 C   0  0  0  0  0  0
    4.3484   -2.4627   -0.0001 C   0  0  0  0  0  0
    3.6420   -3.6756    0.0001 C   0  0  0  0  0  0
    2.2511   -3.6805    0.0001 C   0  0  0  0  0  0
    1.5346   -2.4840    0.0001 C   0  0  0  0  0  0
    2.1935   -1.2429    0.0000 C   0  0  0  0  0  0
    5.7850   -2.4202    0.0000 C   0  0  0  0  0  0
    6.4606   -1.2399    0.0000 C   0  0  0  0  0  0
   -0.4157    1.0529    0.0000 H   0  0  0  0  0  0
   -0.4350   -0.4820    0.8815 H   0  0  0  0  0  0
   -0.4351   -0.4821   -0.8813 H   0  0  0  0  0  0
    1.6469    2.1349   -0.0001 H   0  0  0  0  0  0
    3.7803    3.3795    0.0001 H   0  0  0  0  0  0
    6.2579    3.3902    0.0003 H   0  0  0  0  0  0
    7.5212    1.2590    0.0003 H   0  0  0  0  0  0
    4.1941   -4.6111    0.0001 H   0  0  0  0  0  0
    1.7153   -4.6253    0.0003 H   0  0  0  0  0  0
    0.4507   -2.5188    0.0002 H   0  0  0  0  0  0
    6.3270   -3.3624    0.0000 H   0  0  0  0  0  0
    7.5474   -1.2280    0.0000 H   0  0  0  0  0  0
  1  2  1  0  0  0
  1 18  1  0  0  0
  1 19  1  0  0  0
  1 20  1  0  0  0
  2 15  1  0  0  0
  2  3  2  0  0  0
  3  4  1  0  0  0
  3 21  1  0  0  0
  4  9  1  0  0  0
  4  5  2  0  0  0
  5  6  1  0  0  0
  5 22  1  0  0  0
  6  7  2  0  0  0
  6 23  1  0  0  0
  7  8  1  0  0  0
  7 24  1  0  0  0
  8 17  1  0  0  0
  8  9  2  0  0  0
  9 10  1  0  0  0
 10 15  1  0  0  0
 10 11  2  0  0  0
 11 12  1  0  0  0
 11 16  1  0  0  0
 12 13  2  0  0  0
 12 25  1  0  0  0
 13 14  1  0  0  0
 13 26  1  0  0  0
 14 15  2  0  0  0
 14 27  1  0  0  0
 16 17  2  0  0  0
 16 28  1  0  0  0
 17 29  1  0  0  0
M  END
>  <i_m_Spin_multiplicity> (1)
1

>  <s_j_Task> (1)
Single Point

>  <s_j_QM_Method> (1)
DFT(b3lyp-d3)

>  <s_j_QM_Basis> (1)
cc-pvtz(-f)

>  <i_j_Number_of_canonical_orbitals> (1)
482

>  <i_j_Geometry_convergence_category> (1)
0

>  <r_j_Gas_Phase_Energy> (1)
-655.303414335113

>  <r_j_Final_Energy> (1)
-655.303414335113

>  <r_j_HOMO> (1)
-0.206978834537238

>  <r_j_LUMO> (1)
-0.0676827738378128

>  <r_j_Polarizability> (1)
202.967331132756

>  <r_j_QM_Dipole_(debye)> (1)
0.41026785514166

>  <r_j_QM_Dipole_X_(debye)> (1)
-0.409847325882016

>  <r_j_QM_Dipole_Y_(debye)> (1)
-0.0185672091389181

>  <r_j_QM_Dipole_Z_(debye)> (1)
0.000375732205302242

>  <r_j_Lowest_Frequency_(cm-1)> (1)
101.894371890629

>  <r_j_Highest_Frequency_(cm-1)> (1)
3155.88421261871

>  <r_j_2nd_Lowest_Frequency_(cm-1)> (1)
142.250275839709

>  <i_j_Num_Negative_Frequencies> (1)
0

>  <r_j_Zero_Point_Energy_(kcal/mol)> (1)
146.920453787772

>  <r_j_Entropy_(cal/mol/K)_298.15K_1.00E+00atm> (1)
102.396744388534

>  <r_j_Enthalpy_(kcal/mol)_298.15K_1.00E+00atm> (1)
7.66170959296319

>  <r_j_Free_Energy_(kcal/mol)_298.15K_1.00E+00atm> (1)
-22.8678797464782

>  <r_j_Internal_Energy_(kcal/mol)_298.15K_1.00E+00atm> (1)
7.06922400413591

>  <r_j_Heat_Capacity_(cal/mol/K)_298.15K_1.00E+00atm> (1)
49.6804623644336

>  <r_j_ln(Q)_298.15K_1.00E+00atm> (1)
38.5965164009158

>  <r_j_Total_Internal_Energy_(au)_298.15K_1.00E+00atm> (1)
-655.058016161613

>  <r_j_Total_Enthalpy_(au)_298.15K_1.00E+00atm> (1)
-655.057071975721

>  <r_j_Total_Free_Energy_(au)_298.15K_1.00E+00atm> (1)
-655.105723973498

>  <r_lp_tautomer_probability> (1)
1

>  <r_epik_Ionization_Penalty> (1)
  0.0000

>  <r_epik_Ionization_Penalty_Charging> (1)
  0.0000

>  <r_epik_Ionization_Penalty_Neutral> (1)
  0.0000

>  <r_epik_State_Penalty> (1)
  0.0000

>  <r_epik_Charging_Adjusted_Penalty> (1)
0

>  <i_epik_Tot_Q> (1)
0

>  <i_epik_Tot_abs_Q> (1)
0

>  <s_lp_Force_Field> (1)
S-OPLS

>  <r_lp_Energy> (1)
38.8383

>  <b_lp_Chiralities_Consistent> (1)
1

$$$$
