18781_3-methylchrysene
                    3D
 Schrodinger Suite 2021-3.
 33 36  0  0  1  0            999 V2000
   -0.0201    0.0054    0.0001 C   0  0  0  0  0  0
    1.4892    0.0168    0.0000 C   0  0  0  0  0  0
    2.2056    1.2001    0.0001 C   0  0  0  0  0  0
    3.6240    1.2307    0.0001 C   0  0  0  0  0  0
    4.3125   -0.0167    0.0000 C   0  0  0  0  0  0
    3.5709   -1.2230   -0.0001 C   0  0  0  0  0  0
    2.1962   -1.2100   -0.0001 C   0  0  0  0  0  0
    5.7379   -0.0284   -0.0001 C   0  0  0  0  0  0
    6.4529    1.1326    0.0000 C   0  0  0  0  0  0
    5.8096    2.4107    0.0000 C   0  0  0  0  0  0
    4.3929    2.4623    0.0000 C   0  0  0  0  0  0
    3.7512    3.7420    0.0000 C   0  0  0  0  0  0
    4.4643    4.9033   -0.0001 C   0  0  0  0  0  0
    5.8904    4.8942   -0.0001 C   0  0  0  0  0  0
    6.6260    6.1042   -0.0002 C   0  0  0  0  0  0
    8.0038    6.0988   -0.0001 C   0  0  0  0  0  0
    8.6910    4.8686    0.0002 C   0  0  0  0  0  0
    7.9955    3.6759    0.0002 C   0  0  0  0  0  0
    6.5773    3.6434    0.0000 C   0  0  0  0  0  0
   -0.4336    1.0176    0.0002 H   0  0  0  0  0  0
   -0.4099   -0.5184    0.8809 H   0  0  0  0  0  0
   -0.4099   -0.5181   -0.8809 H   0  0  0  0  0  0
    1.6464    2.1288    0.0001 H   0  0  0  0  0  0
    4.1115   -2.1659   -0.0002 H   0  0  0  0  0  0
    1.6415   -2.1449   -0.0002 H   0  0  0  0  0  0
    6.2510   -0.9867   -0.0001 H   0  0  0  0  0  0
    7.5347    1.0763   -0.0001 H   0  0  0  0  0  0
    2.6696    3.7983    0.0001 H   0  0  0  0  0  0
    3.9502    5.8604   -0.0001 H   0  0  0  0  0  0
    6.0788    7.0432   -0.0005 H   0  0  0  0  0  0
    8.5574    7.0329   -0.0001 H   0  0  0  0  0  0
    9.7771    4.8572    0.0003 H   0  0  0  0  0  0
    8.5600    2.7508    0.0003 H   0  0  0  0  0  0
  1  2  1  0  0  0
  1 20  1  0  0  0
  1 21  1  0  0  0
  1 22  1  0  0  0
  2  7  1  0  0  0
  2  3  2  0  0  0
  3  4  1  0  0  0
  3 23  1  0  0  0
  4 11  1  0  0  0
  4  5  2  0  0  0
  5  6  1  0  0  0
  5  8  1  0  0  0
  6  7  2  0  0  0
  6 24  1  0  0  0
  7 25  1  0  0  0
  8  9  2  0  0  0
  8 26  1  0  0  0
  9 10  1  0  0  0
  9 27  1  0  0  0
 10 19  1  0  0  0
 10 11  2  0  0  0
 11 12  1  0  0  0
 12 13  2  0  0  0
 12 28  1  0  0  0
 13 14  1  0  0  0
 13 29  1  0  0  0
 14 19  1  0  0  0
 14 15  2  0  0  0
 15 16  1  0  0  0
 15 30  1  0  0  0
 16 17  2  0  0  0
 16 31  1  0  0  0
 17 18  1  0  0  0
 17 32  1  0  0  0
 18 19  2  0  0  0
 18 33  1  0  0  0
M  END
>  <i_m_Spin_multiplicity> (1)
1

>  <s_j_Task> (1)
Single Point

>  <s_j_QM_Method> (1)
DFT(b3lyp-d3)

>  <s_j_QM_Basis> (1)
cc-pvtz(-f)

>  <i_j_Number_of_canonical_orbitals> (1)
544

>  <i_j_Geometry_convergence_category> (1)
3

>  <r_j_Gas_Phase_Energy> (1)
-732.741090000583

>  <r_j_Final_Energy> (1)
-732.741090000583

>  <r_j_HOMO> (1)
-0.196105436028712

>  <r_j_LUMO> (1)
-0.0424640272100467

>  <r_j_Polarizability> (1)
237.837392738144

>  <r_j_QM_Dipole_(debye)> (1)
0.562772310215814

>  <r_j_QM_Dipole_X_(debye)> (1)
-0.515028636511536

>  <r_j_QM_Dipole_Y_(debye)> (1)
-0.226843877748196

>  <r_j_QM_Dipole_Z_(debye)> (1)
-0.000178456926388892

>  <r_j_Lowest_Frequency_(cm-1)> (1)
62.2947013393764

>  <r_j_Highest_Frequency_(cm-1)> (1)
3169.5323481136

>  <r_j_2nd_Lowest_Frequency_(cm-1)> (1)
98.890896203585

>  <i_j_Num_Negative_Frequencies> (1)
0

>  <r_j_Zero_Point_Energy_(kcal/mol)> (1)
168.020650088058

>  <r_j_Entropy_(cal/mol/K)_298.15K_1.00E+00atm> (1)
112.375370523266

>  <r_j_Enthalpy_(kcal/mol)_298.15K_1.00E+00atm> (1)
8.98275380587969

>  <r_j_Free_Energy_(kcal/mol)_298.15K_1.00E+00atm> (1)
-24.5219629156321

>  <r_j_Internal_Energy_(kcal/mol)_298.15K_1.00E+00atm> (1)
8.39026821705241

>  <r_j_Heat_Capacity_(cal/mol/K)_298.15K_1.00E+00atm> (1)
57.544707932753

>  <r_j_ln(Q)_298.15K_1.00E+00atm> (1)
41.388285855474

>  <r_j_Total_Internal_Energy_(au)_298.15K_1.00E+00atm> (1)
-732.459961305736

>  <r_j_Total_Enthalpy_(au)_298.15K_1.00E+00atm> (1)
-732.459017119844

>  <r_j_Total_Free_Energy_(au)_298.15K_1.00E+00atm> (1)
-732.512410284924

>  <r_lp_tautomer_probability> (1)
1

>  <r_epik_Ionization_Penalty> (1)
  0.0000

>  <r_epik_Ionization_Penalty_Charging> (1)
  0.0000

>  <r_epik_Ionization_Penalty_Neutral> (1)
  0.0000

>  <r_epik_State_Penalty> (1)
  0.0000

>  <r_epik_Charging_Adjusted_Penalty> (1)
0

>  <i_epik_Tot_Q> (1)
0

>  <i_epik_Tot_abs_Q> (1)
0

>  <s_lp_Force_Field> (1)
S-OPLS

>  <r_lp_Energy> (1)
41.7656

>  <b_lp_Chiralities_Consistent> (1)
1

$$$$
