18936_1-Eicosene
                    3D
 Schrodinger Suite 2021-3.
 60 59  0  0  1  0            999 V2000
   -1.4759    8.8201    5.8186 C   0  0  0  0  0  0
   -1.7846    8.0602    4.5253 C   0  0  0  0  0  0
   -1.0060    6.7453    4.3990 C   0  0  0  0  0  0
   -1.3133    5.9796    3.1074 C   0  0  0  0  0  0
   -0.5455    4.6593    2.9775 C   0  0  0  0  0  0
   -0.8699    3.8952    1.6888 C   0  0  0  0  0  0
   -0.1243    2.5619    1.5613 C   0  0  0  0  0  0
   -0.4758    1.7975    0.2776 C   0  0  0  0  0  0
    0.1579    0.4016    0.1731 C   0  0  0  0  0  0
    1.6863    0.3970    0.0310 C   0  0  0  0  0  0
    2.2605   -1.0210   -0.0905 C   0  0  0  0  0  0
    3.7911   -1.0886   -0.2016 C   0  0  0  0  0  0
    4.3632   -0.5070   -1.5018 C   0  0  0  0  0  0
    5.8789   -0.7013   -1.6258 C   0  0  0  0  0  0
    6.4639   -0.1780   -2.9428 C   0  0  0  0  0  0
    7.9729   -0.4189   -3.0662 C   0  0  0  0  0  0
    8.5651    0.0484   -4.4002 C   0  0  0  0  0  0
   10.0752   -0.2341   -4.5136 C   0  0  0  0  0  0
   10.6624    0.2338   -5.8158 C   0  0  0  0  0  0
   11.2350   -0.5498   -6.7298 C   0  0  0  0  0  0
   -2.0449    9.7535    5.8834 H   0  0  0  0  0  0
   -0.4111    9.0730    5.8826 H   0  0  0  0  0  0
   -1.7240    8.2161    6.6992 H   0  0  0  0  0  0
   -2.8614    7.8480    4.4713 H   0  0  0  0  0  0
   -1.5581    8.6983    3.6601 H   0  0  0  0  0  0
    0.0723    6.9549    4.4518 H   0  0  0  0  0  0
   -1.2318    6.1054    5.2645 H   0  0  0  0  0  0
   -2.3929    5.7767    3.0552 H   0  0  0  0  0  0
   -1.0847    6.6194    2.2428 H   0  0  0  0  0  0
    0.5348    4.8591    3.0219 H   0  0  0  0  0  0
   -0.7708    4.0213    3.8443 H   0  0  0  0  0  0
   -1.9529    3.7099    1.6416 H   0  0  0  0  0  0
   -0.6346    4.5284    0.8211 H   0  0  0  0  0  0
    0.9566    2.7495    1.6043 H   0  0  0  0  0  0
   -0.3580    1.9310    2.4315 H   0  0  0  0  0  0
   -1.5681    1.6943    0.2202 H   0  0  0  0  0  0
   -0.1828    2.3985   -0.5955 H   0  0  0  0  0  0
   -0.1251   -0.1892    1.0567 H   0  0  0  0  0  0
   -0.2745   -0.1220   -0.6906 H   0  0  0  0  0  0
    1.9634    0.9940   -0.8482 H   0  0  0  0  0  0
    2.1478    0.8932    0.8952 H   0  0  0  0  0  0
    1.9417   -1.6024    0.7856 H   0  0  0  0  0  0
    1.8133   -1.5200   -0.9627 H   0  0  0  0  0  0
    4.2428   -0.5720    0.6578 H   0  0  0  0  0  0
    4.1047   -2.1385   -0.1215 H   0  0  0  0  0  0
    3.8654   -0.9841   -2.3587 H   0  0  0  0  0  0
    4.1294    0.5635   -1.5725 H   0  0  0  0  0  0
    6.3803   -0.2064   -0.7815 H   0  0  0  0  0  0
    6.1133   -1.7714   -1.5298 H   0  0  0  0  0  0
    5.9495   -0.6623   -3.7852 H   0  0  0  0  0  0
    6.2544    0.8971   -3.0377 H   0  0  0  0  0  0
    8.4920    0.0871   -2.2393 H   0  0  0  0  0  0
    8.1773   -1.4918   -2.9388 H   0  0  0  0  0  0
    8.0457   -0.4490   -5.2300 H   0  0  0  0  0  0
    8.3835    1.1250   -4.5277 H   0  0  0  0  0  0
   10.5877    0.2678   -3.6790 H   0  0  0  0  0  0
   10.2570   -1.3095   -4.3891 H   0  0  0  0  0  0
   10.5856    1.3052   -6.0102 H   0  0  0  0  0  0
   11.3296   -1.6232   -6.5799 H   0  0  0  0  0  0
   11.6315   -0.1517   -7.6594 H   0  0  0  0  0  0
  1  2  1  0  0  0
  1 21  1  0  0  0
  1 22  1  0  0  0
  1 23  1  0  0  0
  2  3  1  0  0  0
  2 24  1  0  0  0
  2 25  1  0  0  0
  3  4  1  0  0  0
  3 26  1  0  0  0
  3 27  1  0  0  0
  4  5  1  0  0  0
  4 28  1  0  0  0
  4 29  1  0  0  0
  5  6  1  0  0  0
  5 30  1  0  0  0
  5 31  1  0  0  0
  6  7  1  0  0  0
  6 32  1  0  0  0
  6 33  1  0  0  0
  7  8  1  0  0  0
  7 34  1  0  0  0
  7 35  1  0  0  0
  8  9  1  0  0  0
  8 36  1  0  0  0
  8 37  1  0  0  0
  9 10  1  0  0  0
  9 38  1  0  0  0
  9 39  1  0  0  0
 10 11  1  0  0  0
 10 40  1  0  0  0
 10 41  1  0  0  0
 11 12  1  0  0  0
 11 42  1  0  0  0
 11 43  1  0  0  0
 12 13  1  0  0  0
 12 44  1  0  0  0
 12 45  1  0  0  0
 13 14  1  0  0  0
 13 46  1  0  0  0
 13 47  1  0  0  0
 14 15  1  0  0  0
 14 48  1  0  0  0
 14 49  1  0  0  0
 15 16  1  0  0  0
 15 50  1  0  0  0
 15 51  1  0  0  0
 16 17  1  0  0  0
 16 52  1  0  0  0
 16 53  1  0  0  0
 17 18  1  0  0  0
 17 54  1  0  0  0
 17 55  1  0  0  0
 18 19  1  0  0  0
 18 56  1  0  0  0
 18 57  1  0  0  0
 19 20  2  0  0  0
 19 58  1  0  0  0
 20 59  1  0  0  0
 20 60  1  0  0  0
M  END
>  <i_m_Spin_multiplicity> (1)
1

>  <s_j_Task> (1)
Single Point

>  <s_j_QM_Method> (1)
DFT(b3lyp-d3)

>  <s_j_QM_Basis> (1)
cc-pvtz(-f)

>  <i_j_Number_of_canonical_orbitals> (1)
813

>  <i_j_Geometry_convergence_category> (1)
3

>  <r_j_Gas_Phase_Energy> (1)
-786.554463063048

>  <r_j_Final_Energy> (1)
-786.554463063048

>  <r_j_HOMO> (1)
-0.228203564646761

>  <r_j_LUMO> (1)
0.0363803375361793

>  <r_j_Polarizability> (1)
249.138385996516

>  <r_j_QM_Dipole_(debye)> (1)
0.476507712181851

>  <r_j_QM_Dipole_X_(debye)> (1)
-0.343871282144428

>  <r_j_QM_Dipole_Y_(debye)> (1)
0.066798023558673

>  <r_j_QM_Dipole_Z_(debye)> (1)
0.323032761703491

>  <r_j_Lowest_Frequency_(cm-1)> (1)
21.3488289175862

>  <r_j_Highest_Frequency_(cm-1)> (1)
3166.13647820359

>  <r_j_2nd_Lowest_Frequency_(cm-1)> (1)
40.2519903291062

>  <i_j_Num_Negative_Frequencies> (1)
0

>  <r_j_Zero_Point_Energy_(kcal/mol)> (1)
353.906051292535

>  <r_j_Entropy_(cal/mol/K)_298.15K_1.00E+00atm> (1)
163.369892944342

>  <r_j_Enthalpy_(kcal/mol)_298.15K_1.00E+00atm> (1)
15.862588926354

>  <r_j_Free_Energy_(kcal/mol)_298.15K_1.00E+00atm> (1)
-32.8461446550015

>  <r_j_Internal_Energy_(kcal/mol)_298.15K_1.00E+00atm> (1)
15.2701033375267

>  <r_j_Heat_Capacity_(cal/mol/K)_298.15K_1.00E+00atm> (1)
93.1545996740344

>  <r_j_ln(Q)_298.15K_1.00E+00atm> (1)
55.4378794596758

>  <r_j_Total_Internal_Energy_(au)_298.15K_1.00E+00atm> (1)
-785.966143408477

>  <r_j_Total_Enthalpy_(au)_298.15K_1.00E+00atm> (1)
-785.965199222585

>  <r_j_Total_Free_Energy_(au)_298.15K_1.00E+00atm> (1)
-786.042821530949

>  <r_lp_tautomer_probability> (1)
1

>  <r_epik_Ionization_Penalty> (1)
  0.0000

>  <r_epik_Ionization_Penalty_Charging> (1)
  0.0000

>  <r_epik_Ionization_Penalty_Neutral> (1)
  0.0000

>  <r_epik_State_Penalty> (1)
  0.0000

>  <r_epik_Charging_Adjusted_Penalty> (1)
0

>  <i_epik_Tot_Q> (1)
0

>  <i_epik_Tot_abs_Q> (1)
0

>  <s_lp_Force_Field> (1)
S-OPLS

>  <r_lp_Energy> (1)
7.521169

>  <b_lp_Chiralities_Consistent> (1)
1

$$$$
