18932_2-Methylpyrene
                    3D
 Schrodinger Suite 2021-3.
 29 32  0  0  1  0            999 V2000
   -0.0245   -0.0043    0.0004 C   0  0  0  0  0  0
    1.4865    0.0075    0.0001 C   0  0  0  0  0  0
    2.1986    1.2086   -0.0002 C   0  0  0  0  0  0
    3.6025    1.2347   -0.0003 C   0  0  0  0  0  0
    4.3194    0.0040   -0.0002 C   0  0  0  0  0  0
    3.5983   -1.2271   -0.0001 C   0  0  0  0  0  0
    2.1974   -1.1982    0.0000 C   0  0  0  0  0  0
    4.3443   -2.4564   -0.0002 C   0  0  0  0  0  0
    5.7046   -2.4591   -0.0002 C   0  0  0  0  0  0
    6.4568   -1.2341    0.0000 C   0  0  0  0  0  0
    7.8599   -1.2116    0.0001 C   0  0  0  0  0  0
    8.5521   -0.0017    0.0004 C   0  0  0  0  0  0
    7.8638    1.2095    0.0004 C   0  0  0  0  0  0
    6.4600    1.2356    0.0001 C   0  0  0  0  0  0
    5.7443    0.0018   -0.0001 C   0  0  0  0  0  0
    5.7110    2.4618   -0.0001 C   0  0  0  0  0  0
    4.3499    2.4618   -0.0004 C   0  0  0  0  0  0
   -0.4353    1.0090    0.0005 H   0  0  0  0  0  0
   -0.4150   -0.5253    0.8821 H   0  0  0  0  0  0
   -0.4154   -0.5254   -0.8810 H   0  0  0  0  0  0
    1.6576    2.1518   -0.0002 H   0  0  0  0  0  0
    1.6528   -2.1402    0.0001 H   0  0  0  0  0  0
    3.7943   -3.3935   -0.0003 H   0  0  0  0  0  0
    6.2509   -3.3985   -0.0002 H   0  0  0  0  0  0
    8.4046   -2.1521    0.0001 H   0  0  0  0  0  0
    9.6382   -0.0033    0.0006 H   0  0  0  0  0  0
    8.4106    2.1487    0.0007 H   0  0  0  0  0  0
    6.2589    3.4002    0.0000 H   0  0  0  0  0  0
    3.8015    3.3999   -0.0006 H   0  0  0  0  0  0
  1  2  1  0  0  0
  1 18  1  0  0  0
  1 19  1  0  0  0
  1 20  1  0  0  0
  2  7  1  0  0  0
  2  3  2  0  0  0
  3  4  1  0  0  0
  3 21  1  0  0  0
  4 17  1  0  0  0
  4  5  2  0  0  0
  5 15  1  0  0  0
  5  6  1  0  0  0
  6  7  2  0  0  0
  6  8  1  0  0  0
  7 22  1  0  0  0
  8  9  2  0  0  0
  8 23  1  0  0  0
  9 10  1  0  0  0
  9 24  1  0  0  0
 10 15  1  0  0  0
 10 11  2  0  0  0
 11 12  1  0  0  0
 11 25  1  0  0  0
 12 13  2  0  0  0
 12 26  1  0  0  0
 13 14  1  0  0  0
 13 27  1  0  0  0
 14 15  2  0  0  0
 14 16  1  0  0  0
 16 17  2  0  0  0
 16 28  1  0  0  0
 17 29  1  0  0  0
M  END
>  <i_m_Spin_multiplicity> (1)
1

>  <s_j_Task> (1)
Single Point

>  <s_j_QM_Method> (1)
DFT(b3lyp-d3)

>  <s_j_QM_Basis> (1)
cc-pvtz(-f)

>  <i_j_Number_of_canonical_orbitals> (1)
483

>  <i_j_Geometry_convergence_category> (1)
0

>  <r_j_Gas_Phase_Energy> (1)
-655.303456877779

>  <r_j_Final_Energy> (1)
-655.303456877779

>  <r_j_HOMO> (1)
-0.203841306120069

>  <r_j_LUMO> (1)
-0.0645939141514513

>  <r_j_Polarizability> (1)
206.073551862618

>  <r_j_QM_Dipole_(debye)> (1)
0.521711686611476

>  <r_j_QM_Dipole_X_(debye)> (1)
-0.520295732686352

>  <r_j_QM_Dipole_Y_(debye)> (1)
-0.0384087433674144

>  <r_j_QM_Dipole_Z_(debye)> (1)
0.000450475636852314

>  <r_j_Lowest_Frequency_(cm-1)> (1)
89.3301764180038

>  <r_j_Highest_Frequency_(cm-1)> (1)
3142.90324172246

>  <r_j_2nd_Lowest_Frequency_(cm-1)> (1)
169.928975608201

>  <i_j_Num_Negative_Frequencies> (1)
0

>  <r_j_Zero_Point_Energy_(kcal/mol)> (1)
146.669948560713

>  <r_j_Entropy_(cal/mol/K)_298.15K_1.00E+00atm> (1)
103.195751404601

>  <r_j_Enthalpy_(kcal/mol)_298.15K_1.00E+00atm> (1)
7.76467106458034

>  <r_j_Free_Energy_(kcal/mol)_298.15K_1.00E+00atm> (1)
-23.0031422167013

>  <r_j_Internal_Energy_(kcal/mol)_298.15K_1.00E+00atm> (1)
7.17218547575307

>  <r_j_Heat_Capacity_(cal/mol/K)_298.15K_1.00E+00atm> (1)
49.9212855042963

>  <r_j_ln(Q)_298.15K_1.00E+00atm> (1)
38.8248130426803

>  <r_j_Total_Internal_Energy_(au)_298.15K_1.00E+00atm> (1)
-655.058293830222

>  <r_j_Total_Enthalpy_(au)_298.15K_1.00E+00atm> (1)
-655.05734964433

>  <r_j_Total_Free_Energy_(au)_298.15K_1.00E+00atm> (1)
-655.106381276125

>  <r_lp_tautomer_probability> (1)
1

>  <r_epik_Ionization_Penalty> (1)
  0.0000

>  <r_epik_Ionization_Penalty_Charging> (1)
  0.0000

>  <r_epik_Ionization_Penalty_Neutral> (1)
  0.0000

>  <r_epik_State_Penalty> (1)
  0.0000

>  <r_epik_Charging_Adjusted_Penalty> (1)
0

>  <i_epik_Tot_Q> (1)
0

>  <i_epik_Tot_abs_Q> (1)
0

>  <s_lp_Force_Field> (1)
S-OPLS

>  <r_lp_Energy> (1)
35.1393

>  <b_lp_Chiralities_Consistent> (1)
1

$$$$
