18972702_5-isopropylnonane
                    3D
 Schrodinger Suite 2021-3.
 38 37  0  0  1  0            999 V2000
   -2.7586    2.8722    0.0524 C   0  0  0  0  0  0
   -2.1488    1.4803    0.2414 C   0  0  0  0  0  0
   -0.6478    1.4345   -0.0711 C   0  0  0  0  0  0
   -0.0526    0.0300    0.0915 C   0  0  0  0  0  0
    1.4876   -0.0583   -0.0107 C   0  0  0  0  0  0
    2.0307    0.6461   -1.2759 C   0  0  0  0  0  0
    1.5934    0.0369   -2.6143 C   0  0  0  0  0  0
    2.1670    0.7876   -3.8222 C   0  0  0  0  0  0
    1.7372    0.1849   -5.1628 C   0  0  0  0  0  0
    1.9764   -1.5290    0.1271 C   0  0  0  0  0  0
    1.5894   -2.1388    1.4857 C   0  0  0  0  0  0
    3.4948   -1.6655   -0.0730 C   0  0  0  0  0  0
   -3.8287    2.8787    0.2847 H   0  0  0  0  0  0
   -2.6393    3.2178   -0.9811 H   0  0  0  0  0  0
   -2.2712    3.6073    0.7033 H   0  0  0  0  0  0
   -2.3145    1.1424    1.2735 H   0  0  0  0  0  0
   -2.6723    0.7586   -0.4009 H   0  0  0  0  0  0
   -0.4896    1.7994   -1.0942 H   0  0  0  0  0  0
   -0.1177    2.1375    0.5881 H   0  0  0  0  0  0
   -0.3648   -0.3544    1.0690 H   0  0  0  0  0  0
   -0.5078   -0.6405   -0.6513 H   0  0  0  0  0  0
    1.9020    0.4929    0.8495 H   0  0  0  0  0  0
    1.7255    1.6992   -1.2512 H   0  0  0  0  0  0
    3.1258    0.6672   -1.2354 H   0  0  0  0  0  0
    1.9037   -1.0152   -2.6681 H   0  0  0  0  0  0
    0.4972    0.0316   -2.6837 H   0  0  0  0  0  0
    1.8559    1.8403   -3.7743 H   0  0  0  0  0  0
    3.2638    0.7931   -3.7557 H   0  0  0  0  0  0
    2.1603    0.7374   -6.0083 H   0  0  0  0  0  0
    0.6461    0.1970   -5.2685 H   0  0  0  0  0  0
    2.0641   -0.8580   -5.2485 H   0  0  0  0  0  0
    1.4803   -2.1219   -0.6554 H   0  0  0  0  0  0
    2.0093   -1.5475    2.3092 H   0  0  0  0  0  0
    1.9807   -3.1576    1.5776 H   0  0  0  0  0  0
    0.5075   -2.1919    1.6301 H   0  0  0  0  0  0
    4.0397   -1.0152    0.6226 H   0  0  0  0  0  0
    3.8081   -1.4061   -1.0878 H   0  0  0  0  0  0
    3.8176   -2.6949    0.1154 H   0  0  0  0  0  0
  1  2  1  0  0  0
  1 13  1  0  0  0
  1 14  1  0  0  0
  1 15  1  0  0  0
  2  3  1  0  0  0
  2 16  1  0  0  0
  2 17  1  0  0  0
  3  4  1  0  0  0
  3 18  1  0  0  0
  3 19  1  0  0  0
  4  5  1  0  0  0
  4 20  1  0  0  0
  4 21  1  0  0  0
  5  6  1  0  0  0
  5 10  1  0  0  0
  5 22  1  0  0  0
  6  7  1  0  0  0
  6 23  1  0  0  0
  6 24  1  0  0  0
  7  8  1  0  0  0
  7 25  1  0  0  0
  7 26  1  0  0  0
  8  9  1  0  0  0
  8 27  1  0  0  0
  8 28  1  0  0  0
  9 29  1  0  0  0
  9 30  1  0  0  0
  9 31  1  0  0  0
 10 11  1  0  0  0
 10 12  1  0  0  0
 10 32  1  0  0  0
 11 33  1  0  0  0
 11 34  1  0  0  0
 11 35  1  0  0  0
 12 36  1  0  0  0
 12 37  1  0  0  0
 12 38  1  0  0  0
M  END
>  <i_m_Spin_multiplicity> (1)
1

>  <s_j_Task> (1)
Single Point

>  <s_j_QM_Method> (1)
DFT(b3lyp-d3)

>  <s_j_QM_Basis> (1)
cc-pvtz(-f)

>  <i_j_Number_of_canonical_orbitals> (1)
506

>  <i_j_Geometry_convergence_category> (1)
3

>  <r_j_Gas_Phase_Energy> (1)
-473.156023406037

>  <r_j_Final_Energy> (1)
-473.156023406037

>  <r_j_HOMO> (1)
-0.292361792302465

>  <r_j_LUMO> (1)
0.025188775413749

>  <r_j_Polarizability> (1)
147.016954713248

>  <r_j_QM_Dipole_(debye)> (1)
0.0364721167727251

>  <r_j_QM_Dipole_X_(debye)> (1)
-0.0311629670959149

>  <r_j_QM_Dipole_Y_(debye)> (1)
-0.0124141807486098

>  <r_j_QM_Dipole_Z_(debye)> (1)
0.0143168746590543

>  <r_j_Lowest_Frequency_(cm-1)> (1)
52.1220566250309

>  <r_j_Highest_Frequency_(cm-1)> (1)
3064.61546991327

>  <r_j_2nd_Lowest_Frequency_(cm-1)> (1)
88.2424154646868

>  <i_j_Num_Negative_Frequencies> (1)
0

>  <r_j_Zero_Point_Energy_(kcal/mol)> (1)
225.516585451366

>  <r_j_Entropy_(cal/mol/K)_298.15K_1.00E+00atm> (1)
118.890570807357

>  <r_j_Enthalpy_(kcal/mol)_298.15K_1.00E+00atm> (1)
10.0122977666743

>  <r_j_Free_Energy_(kcal/mol)_298.15K_1.00E+00atm> (1)
-25.4349259195393

>  <r_j_Internal_Energy_(kcal/mol)_298.15K_1.00E+00atm> (1)
9.41981217784702

>  <r_j_Heat_Capacity_(cal/mol/K)_298.15K_1.00E+00atm> (1)
58.0364618433446

>  <r_j_ln(Q)_298.15K_1.00E+00atm> (1)
42.9291891637119

>  <r_j_Total_Internal_Energy_(au)_298.15K_1.00E+00atm> (1)
-472.781628422597

>  <r_j_Total_Enthalpy_(au)_298.15K_1.00E+00atm> (1)
-472.780684236704

>  <r_j_Total_Free_Energy_(au)_298.15K_1.00E+00atm> (1)
-472.837172983697

>  <r_lp_tautomer_probability> (1)
1

>  <r_epik_Ionization_Penalty> (1)
  0.0000

>  <r_epik_Ionization_Penalty_Charging> (1)
  0.0000

>  <r_epik_Ionization_Penalty_Neutral> (1)
  0.0000

>  <r_epik_State_Penalty> (1)
  0.0000

>  <r_epik_Charging_Adjusted_Penalty> (1)
0

>  <i_epik_Tot_Q> (1)
0

>  <i_epik_Tot_abs_Q> (1)
0

>  <s_lp_Force_Field> (1)
S-OPLS

>  <r_lp_Energy> (1)
8.91678

>  <b_lp_Chiralities_Consistent> (1)
1

$$$$
