19076_DDE
                    3D
 Schrodinger Suite 2021-3.
 28 29  0  0  1  0            999 V2000
   -0.2064    0.1881   -0.1012 C   0  0  0  0  0  0
    1.3267    0.1207    0.0126 C   0  0  0  0  0  0
    1.8910    0.7435    1.2873 C   0  0  0  0  0  0
    3.2415    0.5257    1.5985 C   0  0  0  0  0  0
    3.8274    1.0809    2.7305 C   0  0  0  0  0  0
    3.0505    1.8778    3.5721 C   0  0  0  0  0  0
    1.7101    2.1160    3.2912 C   0  0  0  0  0  0
    1.1392    1.5460    2.1499 C   0  0  0  0  0  0
    3.7804    2.5895    5.0080 Cl  0  0  0  0  0  0
    1.9724    0.7294   -1.2297 C   0  0  0  0  0  0
    2.4342   -0.0842   -2.2683 C   0  0  0  0  0  0
    2.9884    0.4628   -3.4263 C   0  0  0  0  0  0
    3.0789    1.8469   -3.5427 C   0  0  0  0  0  0
    2.6274    2.6841   -2.5229 C   0  0  0  0  0  0
    2.0795    2.1186   -1.3745 C   0  0  0  0  0  0
    3.7811    2.5525   -4.9959 Cl  0  0  0  0  0  0
   -0.5515    1.2228   -0.1950 H   0  0  0  0  0  0
   -0.6899   -0.2621    0.7717 H   0  0  0  0  0  0
   -0.5369   -0.3483   -0.9947 H   0  0  0  0  0  0
    1.6044   -0.9415    0.0316 H   0  0  0  0  0  0
    3.8469   -0.0838    0.9326 H   0  0  0  0  0  0
    4.8718    0.9038    2.9615 H   0  0  0  0  0  0
    1.1183    2.7369    3.9546 H   0  0  0  0  0  0
    0.0914    1.7388    1.9470 H   0  0  0  0  0  0
    2.3622   -1.1651   -2.1764 H   0  0  0  0  0  0
    3.3480   -0.1748   -4.2261 H   0  0  0  0  0  0
    2.7118    3.7601   -2.6275 H   0  0  0  0  0  0
    1.7434    2.7674   -0.5707 H   0  0  0  0  0  0
  1  2  1  0  0  0
  1 17  1  0  0  0
  1 18  1  0  0  0
  1 19  1  0  0  0
  2  3  1  0  0  0
  2 10  1  0  0  0
  2 20  1  0  0  0
  3  8  1  0  0  0
  3  4  2  0  0  0
  4  5  1  0  0  0
  4 21  1  0  0  0
  5  6  2  0  0  0
  5 22  1  0  0  0
  6  7  1  0  0  0
  6  9  1  0  0  0
  7  8  2  0  0  0
  7 23  1  0  0  0
  8 24  1  0  0  0
 10 15  1  0  0  0
 10 11  2  0  0  0
 11 12  1  0  0  0
 11 25  1  0  0  0
 12 13  2  0  0  0
 12 26  1  0  0  0
 13 14  1  0  0  0
 13 16  1  0  0  0
 14 15  2  0  0  0
 14 27  1  0  0  0
 15 28  1  0  0  0
M  END
>  <i_m_Spin_multiplicity> (1)
1

>  <s_j_Task> (1)
Single Point

>  <s_j_QM_Method> (1)
DFT(b3lyp-d3)

>  <s_j_QM_Basis> (1)
cc-pvtz(-f)

>  <i_j_Number_of_canonical_orbitals> (1)
473

>  <i_j_Geometry_convergence_category> (1)
3

>  <r_j_Gas_Phase_Energy> (1)
-1461.38240435933

>  <r_j_Final_Energy> (1)
-1461.38240435933

>  <r_j_HOMO> (1)
-0.226942525597547

>  <r_j_LUMO> (1)
-0.0343156956143036

>  <r_j_Polarizability> (1)
183.629072259189

>  <r_j_QM_Dipole_(debye)> (1)
2.27802028196083

>  <r_j_QM_Dipole_X_(debye)> (1)
-1.62640555481226

>  <r_j_QM_Dipole_Y_(debye)> (1)
-1.5948079254888

>  <r_j_QM_Dipole_Z_(debye)> (1)
-0.0277318787471922

>  <r_j_Lowest_Frequency_(cm-1)> (1)
43.6767164427227

>  <r_j_Highest_Frequency_(cm-1)> (1)
3162.81479073582

>  <r_j_2nd_Lowest_Frequency_(cm-1)> (1)
72.1977139171742

>  <i_j_Num_Negative_Frequencies> (1)
0

>  <r_j_Zero_Point_Energy_(kcal/mol)> (1)
136.976949381047

>  <r_j_Entropy_(cal/mol/K)_298.15K_1.00E+00atm> (1)
115.314335115823

>  <r_j_Enthalpy_(kcal/mol)_298.15K_1.00E+00atm> (1)
9.034860926481

>  <r_j_Free_Energy_(kcal/mol)_298.15K_1.00E+00atm> (1)
-25.3461080883015

>  <r_j_Internal_Energy_(kcal/mol)_298.15K_1.00E+00atm> (1)
8.44237533765373

>  <r_j_Heat_Capacity_(cal/mol/K)_298.15K_1.00E+00atm> (1)
53.6717017697278

>  <r_j_ln(Q)_298.15K_1.00E+00atm> (1)
42.7792820049342

>  <r_j_Total_Internal_Energy_(au)_298.15K_1.00E+00atm> (1)
-1461.15066391289

>  <r_j_Total_Enthalpy_(au)_298.15K_1.00E+00atm> (1)
-1461.149719727

>  <r_j_Total_Free_Energy_(au)_298.15K_1.00E+00atm> (1)
-1461.20450928901

>  <r_lp_tautomer_probability> (1)
1

>  <r_epik_Ionization_Penalty> (1)
  0.0000

>  <r_epik_Ionization_Penalty_Charging> (1)
  0.0000

>  <r_epik_Ionization_Penalty_Neutral> (1)
  0.0000

>  <r_epik_State_Penalty> (1)
  0.0000

>  <r_epik_Charging_Adjusted_Penalty> (1)
0

>  <i_epik_Tot_Q> (1)
0

>  <i_epik_Tot_abs_Q> (1)
0

>  <s_lp_Force_Field> (1)
S-OPLS

>  <r_lp_Energy> (1)
21.1826

>  <b_lp_Chiralities_Consistent> (1)
1

$$$$
