19090156_Ethyldimethylcyclohexane
                    3D
 Schrodinger Suite 2021-3.
 30 30  0  0  1  0            999 V2000
   -0.5978    1.4955   -0.2107 C   0  0  0  0  0  0
   -0.0694    0.0971    0.1337 C   0  0  0  0  0  0
    1.4707   -0.0135    0.1220 C   0  0  0  0  0  0
    2.0837    0.7590    1.3108 C   0  0  0  0  0  0
    3.6169    0.7338    1.3142 C   0  0  0  0  0  0
    4.1404   -0.7063    1.2846 C   0  0  0  0  0  0
    3.5503   -1.4656    0.0903 C   0  0  0  0  0  0
    1.9989   -1.4867    0.0447 C   0  0  0  0  0  0
    1.4455   -2.3541    1.1939 C   0  0  0  0  0  0
    1.5905   -2.1365   -1.2927 C   0  0  0  0  0  0
   -1.6927    1.5064   -0.2313 H   0  0  0  0  0  0
   -0.2432    1.8161   -1.1973 H   0  0  0  0  0  0
   -0.2782    2.2486    0.5163 H   0  0  0  0  0  0
   -0.4466   -0.1995    1.1210 H   0  0  0  0  0  0
   -0.4986   -0.6145   -0.5797 H   0  0  0  0  0  0
    1.8274    0.4792   -0.7976 H   0  0  0  0  0  0
    1.7348    1.7973    1.2916 H   0  0  0  0  0  0
    1.7104    0.3316    2.2520 H   0  0  0  0  0  0
    3.9880    1.2693    0.4284 H   0  0  0  0  0  0
    4.0035    1.2701    2.1892 H   0  0  0  0  0  0
    5.2356   -0.7172    1.2278 H   0  0  0  0  0  0
    3.8753   -1.2121    2.2222 H   0  0  0  0  0  0
    3.9148   -0.9940   -0.8340 H   0  0  0  0  0  0
    3.9209   -2.4989    0.0748 H   0  0  0  0  0  0
    1.8735   -3.3619    1.1481 H   0  0  0  0  0  0
    0.3580   -2.4559    1.1257 H   0  0  0  0  0  0
    1.6773   -1.9427    2.1799 H   0  0  0  0  0  0
    2.0528   -3.1253   -1.3923 H   0  0  0  0  0  0
    1.9179   -1.5282   -2.1437 H   0  0  0  0  0  0
    0.5086   -2.2758   -1.3758 H   0  0  0  0  0  0
  1  2  1  0  0  0
  1 11  1  0  0  0
  1 12  1  0  0  0
  1 13  1  0  0  0
  2  3  1  0  0  0
  2 14  1  0  0  0
  2 15  1  0  0  0
  3  8  1  0  0  0
  3  4  1  0  0  0
  3 16  1  0  0  0
  4  5  1  0  0  0
  4 17  1  0  0  0
  4 18  1  0  0  0
  5  6  1  0  0  0
  5 19  1  0  0  0
  5 20  1  0  0  0
  6  7  1  0  0  0
  6 21  1  0  0  0
  6 22  1  0  0  0
  7  8  1  0  0  0
  7 23  1  0  0  0
  7 24  1  0  0  0
  8  9  1  0  0  0
  8 10  1  0  0  0
  9 25  1  0  0  0
  9 26  1  0  0  0
  9 27  1  0  0  0
 10 28  1  0  0  0
 10 29  1  0  0  0
 10 30  1  0  0  0
M  END
>  <i_m_Spin_multiplicity> (1)
1

>  <s_j_Task> (1)
Single Point

>  <s_j_QM_Method> (1)
DFT(b3lyp-d3)

>  <s_j_QM_Basis> (1)
cc-pvtz(-f)

>  <i_j_Number_of_canonical_orbitals> (1)
405

>  <i_j_Geometry_convergence_category> (1)
0

>  <r_j_Gas_Phase_Energy> (1)
-393.290000567622

>  <r_j_Final_Energy> (1)
-393.290000567622

>  <r_j_HOMO> (1)
-0.291792952509677

>  <r_j_LUMO> (1)
0.0214869837047816

>  <r_j_Polarizability> (1)
116.172644832328

>  <r_j_QM_Dipole_(debye)> (1)
0.055304982405137

>  <r_j_QM_Dipole_X_(debye)> (1)
0.0206607607735704

>  <r_j_QM_Dipole_Y_(debye)> (1)
0.0252462080275548

>  <r_j_QM_Dipole_Z_(debye)> (1)
0.0446587396073741

>  <r_j_Lowest_Frequency_(cm-1)> (1)
115.915972966228

>  <r_j_Highest_Frequency_(cm-1)> (1)
3063.15549605566

>  <r_j_2nd_Lowest_Frequency_(cm-1)> (1)
137.277509985754

>  <i_j_Num_Negative_Frequencies> (1)
0

>  <r_j_Zero_Point_Energy_(kcal/mol)> (1)
177.055219543642

>  <r_j_Entropy_(cal/mol/K)_298.15K_1.00E+00atm> (1)
96.6799471790688

>  <r_j_Enthalpy_(kcal/mol)_298.15K_1.00E+00atm> (1)
7.21374127731265

>  <r_j_Free_Energy_(kcal/mol)_298.15K_1.00E+00atm> (1)
-21.6113849741267

>  <r_j_Internal_Energy_(kcal/mol)_298.15K_1.00E+00atm> (1)
6.62125568848538

>  <r_j_Heat_Capacity_(cal/mol/K)_298.15K_1.00E+00atm> (1)
43.7778535577302

>  <r_j_ln(Q)_298.15K_1.00E+00atm> (1)
36.4757985369785

>  <r_j_Total_Internal_Energy_(au)_298.15K_1.00E+00atm> (1)
-392.997293470736

>  <r_j_Total_Enthalpy_(au)_298.15K_1.00E+00atm> (1)
-392.996349284844

>  <r_j_Total_Free_Energy_(au)_298.15K_1.00E+00atm> (1)
-393.042285047776

>  <r_lp_tautomer_probability> (1)
1

>  <r_epik_Ionization_Penalty> (1)
  0.0000

>  <r_epik_Ionization_Penalty_Charging> (1)
  0.0000

>  <r_epik_Ionization_Penalty_Neutral> (1)
  0.0000

>  <r_epik_State_Penalty> (1)
  0.0000

>  <r_epik_Charging_Adjusted_Penalty> (1)
0

>  <i_epik_Tot_Q> (1)
0

>  <i_epik_Tot_abs_Q> (1)
0

>  <s_lp_Force_Field> (1)
S-OPLS

>  <r_lp_Energy> (1)
17.7779

>  <b_lp_Chiralities_Consistent> (1)
1

$$$$
