19168_2-nitroanthracene
                    3D
 Schrodinger Suite 2021-3.
 26 28  0  0  1  0            999 V2000
   -7.0499    2.4238    0.0001 C   0  0  0  0  0  0
   -6.3423    3.6613    0.0001 C   0  0  0  0  0  0
   -4.9734    3.6757    0.0000 C   0  0  0  0  0  0
   -4.2276    2.4562   -0.0001 C   0  0  0  0  0  0
   -2.8286    2.4407   -0.0001 C   0  0  0  0  0  0
   -2.1108    1.2381   -0.0001 C   0  0  0  0  0  0
   -0.6876    1.2196    0.0000 C   0  0  0  0  0  0
   -0.0279    0.0205    0.0000 C   0  0  0  0  0  0
   -0.7086   -1.2288    0.0000 C   0  0  0  0  0  0
   -2.0746   -1.2352    0.0000 C   0  0  0  0  0  0
   -2.8261   -0.0174   -0.0001 C   0  0  0  0  0  0
   -4.2238    0.0002   -0.0001 C   0  0  0  0  0  0
   -4.9442    1.2026   -0.0001 C   0  0  0  0  0  0
   -6.3726    1.2331    0.0000 C   0  0  0  0  0  0
    1.4417    0.0210    0.0001 N   0  3  1  0  0  0
    2.0101   -1.0724    0.0001 O   0  0  0  0  0  0
    2.0216    1.1081    0.0002 O   0  5  0  0  0  0
   -8.1357    2.4317    0.0002 H   0  0  0  0  0  0
   -6.8981    4.5940    0.0002 H   0  0  0  0  0  0
   -4.4297    4.6162    0.0000 H   0  0  0  0  0  0
   -2.2853    3.3819   -0.0001 H   0  0  0  0  0  0
   -0.1231    2.1445    0.0000 H   0  0  0  0  0  0
   -0.1278   -2.1417    0.0001 H   0  0  0  0  0  0
   -2.6135   -2.1779    0.0000 H   0  0  0  0  0  0
   -4.7664   -0.9415    0.0000 H   0  0  0  0  0  0
   -6.9128    0.2903    0.0000 H   0  0  0  0  0  0
  1 14  1  0  0  0
  1  2  2  0  0  0
  1 18  1  0  0  0
  2  3  1  0  0  0
  2 19  1  0  0  0
  3  4  2  0  0  0
  3 20  1  0  0  0
  4 13  1  0  0  0
  4  5  1  0  0  0
  5  6  2  0  0  0
  5 21  1  0  0  0
  6 11  1  0  0  0
  6  7  1  0  0  0
  7  8  2  0  0  0
  7 22  1  0  0  0
  8  9  1  0  0  0
  8 15  1  0  0  0
  9 10  2  0  0  0
  9 23  1  0  0  0
 10 11  1  0  0  0
 10 24  1  0  0  0
 11 12  2  0  0  0
 12 13  1  0  0  0
 12 25  1  0  0  0
 13 14  2  0  0  0
 14 26  1  0  0  0
 15 16  2  0  0  0
 15 17  1  0  0  0
M  END
>  <i_m_Spin_multiplicity> (1)
1

>  <s_j_Task> (1)
Single Point

>  <s_j_QM_Method> (1)
DFT(b3lyp-d3)

>  <s_j_QM_Basis> (1)
cc-pvtz(-f)

>  <i_j_Number_of_canonical_orbitals> (1)
460

>  <i_j_Geometry_convergence_category> (1)
0

>  <r_j_Gas_Phase_Energy> (1)
-744.282747497449

>  <r_j_Final_Energy> (1)
-744.282747497449

>  <r_j_HOMO> (1)
-0.216538036343445

>  <r_j_LUMO> (1)
-0.101430663183585

>  <r_j_Polarizability> (1)
198.64516475156

>  <r_j_QM_Dipole_(debye)> (1)
5.9261490380368

>  <r_j_QM_Dipole_X_(debye)> (1)
-5.85754163319301

>  <r_j_QM_Dipole_Y_(debye)> (1)
0.899137605517867

>  <r_j_QM_Dipole_Z_(debye)> (1)
-5.27130464584129e-05

>  <r_j_Lowest_Frequency_(cm-1)> (1)
73.1910162126742

>  <r_j_Highest_Frequency_(cm-1)> (1)
3189.77148556496

>  <r_j_2nd_Lowest_Frequency_(cm-1)> (1)
90.5582447383667

>  <i_j_Num_Negative_Frequencies> (1)
0

>  <r_j_Zero_Point_Energy_(kcal/mol)> (1)
122.783521414597

>  <r_j_Entropy_(cal/mol/K)_298.15K_1.00E+00atm> (1)
105.991834540338

>  <r_j_Enthalpy_(kcal/mol)_298.15K_1.00E+00atm> (1)
7.90852158630888

>  <r_j_Free_Energy_(kcal/mol)_298.15K_1.00E+00atm> (1)
-23.6929438818928

>  <r_j_Internal_Energy_(kcal/mol)_298.15K_1.00E+00atm> (1)
7.31603599748161

>  <r_j_Heat_Capacity_(cal/mol/K)_298.15K_1.00E+00atm> (1)
48.6886215397231

>  <r_j_ln(Q)_298.15K_1.00E+00atm> (1)
39.9890635800763

>  <r_j_Total_Internal_Energy_(au)_298.15K_1.00E+00atm> (1)
-744.075420654378

>  <r_j_Total_Enthalpy_(au)_298.15K_1.00E+00atm> (1)
-744.074476468486

>  <r_j_Total_Free_Energy_(au)_298.15K_1.00E+00atm> (1)
-744.124836609613

>  <r_lp_tautomer_probability> (1)
1

>  <r_epik_Ionization_Penalty> (1)
  0.0000

>  <r_epik_Ionization_Penalty_Charging> (1)
  0.0000

>  <r_epik_Ionization_Penalty_Neutral> (1)
  0.0000

>  <r_epik_State_Penalty> (1)
  0.0000

>  <r_epik_Charging_Adjusted_Penalty> (1)
0

>  <i_epik_Tot_Q> (1)
0

>  <i_epik_Tot_abs_Q> (1)
2

>  <s_lp_Force_Field> (1)
S-OPLS

>  <r_lp_Energy> (1)
30.7196

>  <b_lp_Chiralities_Consistent> (1)
1

$$$$
