19427_5-methylchrysene
                    3D
 Schrodinger Suite 2021-3.
 33 36  0  0  1  0            999 V2000
   -0.0622    0.2130   -0.0005 C   0  0  0  0  0  0
    1.4463    0.0660   -0.0001 C   0  0  0  0  0  0
    2.1386    1.2503    0.0003 C   0  0  0  0  0  0
    3.5532    1.3464    0.0004 C   0  0  0  0  0  0
    4.2021    2.6061    0.0006 C   0  0  0  0  0  0
    5.5760    2.6906    0.0001 C   0  0  0  0  0  0
    6.3423    1.5074   -0.0004 C   0  0  0  0  0  0
    5.7276    0.2722   -0.0004 C   0  0  0  0  0  0
    4.3129    0.1480    0.0000 C   0  0  0  0  0  0
    3.6088   -1.1231   -0.0001 C   0  0  0  0  0  0
    2.1803   -1.1930   -0.0001 C   0  0  0  0  0  0
    1.5573   -2.5223   -0.0001 C   0  0  0  0  0  0
    0.1567   -2.7751   -0.0001 C   0  0  0  0  0  0
   -0.3731   -4.0513    0.0000 C   0  0  0  0  0  0
    0.4612   -5.1817    0.0002 C   0  0  0  0  0  0
    1.8237   -4.9908    0.0002 C   0  0  0  0  0  0
    2.3882   -3.6924    0.0000 C   0  0  0  0  0  0
    3.8028   -3.5554    0.0000 C   0  0  0  0  0  0
    4.3794   -2.3270   -0.0001 C   0  0  0  0  0  0
   -0.3256    1.2734   -0.0004 H   0  0  0  0  0  0
   -0.5248   -0.2340    0.8853 H   0  0  0  0  0  0
   -0.5242   -0.2336   -0.8868 H   0  0  0  0  0  0
    1.5784    2.1819    0.0004 H   0  0  0  0  0  0
    3.5928    3.5058    0.0010 H   0  0  0  0  0  0
    6.0685    3.6585    0.0002 H   0  0  0  0  0  0
    7.4269    1.5664   -0.0008 H   0  0  0  0  0  0
    6.3581   -0.6078   -0.0008 H   0  0  0  0  0  0
   -0.5461   -1.9648   -0.0003 H   0  0  0  0  0  0
   -1.4524   -4.1736    0.0000 H   0  0  0  0  0  0
    0.0394   -6.1821    0.0004 H   0  0  0  0  0  0
    2.4996   -5.8417    0.0003 H   0  0  0  0  0  0
    4.4165   -4.4522    0.0000 H   0  0  0  0  0  0
    5.4596   -2.2671   -0.0002 H   0  0  0  0  0  0
  1  2  1  0  0  0
  1 20  1  0  0  0
  1 21  1  0  0  0
  1 22  1  0  0  0
  2 11  1  0  0  0
  2  3  2  0  0  0
  3  4  1  0  0  0
  3 23  1  0  0  0
  4  9  1  0  0  0
  4  5  2  0  0  0
  5  6  1  0  0  0
  5 24  1  0  0  0
  6  7  2  0  0  0
  6 25  1  0  0  0
  7  8  1  0  0  0
  7 26  1  0  0  0
  8  9  2  0  0  0
  8 27  1  0  0  0
  9 10  1  0  0  0
 10 19  1  0  0  0
 10 11  2  0  0  0
 11 12  1  0  0  0
 12 17  1  0  0  0
 12 13  2  0  0  0
 13 14  1  0  0  0
 13 28  1  0  0  0
 14 15  2  0  0  0
 14 29  1  0  0  0
 15 16  1  0  0  0
 15 30  1  0  0  0
 16 17  2  0  0  0
 16 31  1  0  0  0
 17 18  1  0  0  0
 18 19  2  0  0  0
 18 32  1  0  0  0
 19 33  1  0  0  0
M  END
>  <i_m_Spin_multiplicity> (1)
1

>  <s_j_Task> (1)
Single Point

>  <s_j_QM_Method> (1)
DFT(b3lyp-d3)

>  <s_j_QM_Basis> (1)
cc-pvtz(-f)

>  <i_j_Number_of_canonical_orbitals> (1)
545

>  <i_j_Geometry_convergence_category> (1)
3

>  <r_j_Gas_Phase_Energy> (1)
-732.728583861256

>  <r_j_Final_Energy> (1)
-732.728583861256

>  <r_j_HOMO> (1)
-0.214721253641131

>  <r_j_LUMO> (1)
-0.0650936622796955

>  <r_j_Polarizability> (1)
235.210275403641

>  <r_j_QM_Dipole_(debye)> (1)
0.300690039936017

>  <r_j_QM_Dipole_X_(debye)> (1)
-0.282458099680896

>  <r_j_QM_Dipole_Y_(debye)> (1)
0.103110565017679

>  <r_j_QM_Dipole_Z_(debye)> (1)
-0.000365271290879009

>  <r_j_Lowest_Frequency_(cm-1)> (1)
45.9635019094088

>  <r_j_Highest_Frequency_(cm-1)> (1)
3287.11395133578

>  <r_j_2nd_Lowest_Frequency_(cm-1)> (1)
91.8039461985248

>  <i_j_Num_Negative_Frequencies> (1)
0

>  <r_j_Zero_Point_Energy_(kcal/mol)> (1)
168.53201945945

>  <r_j_Entropy_(cal/mol/K)_298.15K_1.00E+00atm> (1)
111.242021309361

>  <r_j_Enthalpy_(kcal/mol)_298.15K_1.00E+00atm> (1)
8.81099572151836

>  <r_j_Free_Energy_(kcal/mol)_298.15K_1.00E+00atm> (1)
-24.3558129318676

>  <r_j_Internal_Energy_(kcal/mol)_298.15K_1.00E+00atm> (1)
8.21851013269108

>  <r_j_Heat_Capacity_(cal/mol/K)_298.15K_1.00E+00atm> (1)
57.0829264781767

>  <r_j_ln(Q)_298.15K_1.00E+00atm> (1)
41.1078571211762

>  <r_j_Total_Internal_Energy_(au)_298.15K_1.00E+00atm> (1)
-732.446913961371

>  <r_j_Total_Enthalpy_(au)_298.15K_1.00E+00atm> (1)
-732.445969775479

>  <r_j_Total_Free_Energy_(au)_298.15K_1.00E+00atm> (1)
-732.498824449773

>  <r_lp_tautomer_probability> (1)
1

>  <r_epik_Ionization_Penalty> (1)
  0.0000

>  <r_epik_Ionization_Penalty_Charging> (1)
  0.0000

>  <r_epik_Ionization_Penalty_Neutral> (1)
  0.0000

>  <r_epik_State_Penalty> (1)
  0.0000

>  <r_epik_Charging_Adjusted_Penalty> (1)
0

>  <i_epik_Tot_Q> (1)
0

>  <i_epik_Tot_abs_Q> (1)
0

>  <s_lp_Force_Field> (1)
S-OPLS

>  <r_lp_Energy> (1)
56.6604

>  <b_lp_Chiralities_Consistent> (1)
1

$$$$
