19462_2,4-dimethyl-furan
                    3D
 Schrodinger Suite 2021-3.
 15 15  0  0  1  0            999 V2000
    0.0011   -0.0048    0.0000 C   0  0  0  0  0  0
    1.4888    0.0015    0.0000 C   0  0  0  0  0  0
    2.4251    0.9908    0.0000 C   0  0  0  0  0  0
    3.7172    0.3540    0.0000 C   0  0  0  0  0  0
    3.4566   -0.9818    0.0000 C   0  0  0  0  0  0
    2.1080   -1.2191    0.0000 O   0  0  0  0  0  0
    5.0590    1.0206    0.0000 C   0  0  0  0  0  0
   -0.3742    1.0212    0.0000 H   0  0  0  0  0  0
   -0.3961   -0.5177    0.8835 H   0  0  0  0  0  0
   -0.3960   -0.5176   -0.8836 H   0  0  0  0  0  0
    2.2259    2.0534    0.0000 H   0  0  0  0  0  0
    4.0914   -1.8546    0.0000 H   0  0  0  0  0  0
    5.8679    0.2841   -0.0001 H   0  0  0  0  0  0
    5.1881    1.6590    0.8818 H   0  0  0  0  0  0
    5.1881    1.6590   -0.8818 H   0  0  0  0  0  0
  1  2  1  0  0  0
  1  8  1  0  0  0
  1  9  1  0  0  0
  1 10  1  0  0  0
  2  6  1  0  0  0
  2  3  2  0  0  0
  3  4  1  0  0  0
  3 11  1  0  0  0
  4  5  2  0  0  0
  4  7  1  0  0  0
  5  6  1  0  0  0
  5 12  1  0  0  0
  7 13  1  0  0  0
  7 14  1  0  0  0
  7 15  1  0  0  0
M  END
>  <i_m_Spin_multiplicity> (1)
1

>  <s_j_Task> (1)
Single Point

>  <s_j_QM_Method> (1)
DFT(b3lyp-d3)

>  <s_j_QM_Basis> (1)
cc-pvtz(-f)

>  <i_j_Number_of_canonical_orbitals> (1)
230

>  <i_j_Geometry_convergence_category> (1)
0

>  <r_j_Gas_Phase_Energy> (1)
-308.774473802301

>  <r_j_Final_Energy> (1)
-308.774473802301

>  <r_j_HOMO> (1)
-0.216657774820353

>  <r_j_LUMO> (1)
0.0123405020620541

>  <r_j_Polarizability> (1)
70.4917361339006

>  <r_j_QM_Dipole_(debye)> (1)
0.738895693834998

>  <r_j_QM_Dipole_X_(debye)> (1)
-0.00291375367090121

>  <r_j_QM_Dipole_Y_(debye)> (1)
0.738889945076728

>  <r_j_QM_Dipole_Z_(debye)> (1)
-7.39726783086068e-05

>  <r_j_Lowest_Frequency_(cm-1)> (1)
186.596743478419

>  <r_j_Highest_Frequency_(cm-1)> (1)
3222.92223968544

>  <r_j_2nd_Lowest_Frequency_(cm-1)> (1)
226.784724423527

>  <i_j_Num_Negative_Frequencies> (1)
0

>  <r_j_Zero_Point_Energy_(kcal/mol)> (1)
78.3454199940363

>  <r_j_Entropy_(cal/mol/K)_298.15K_1.00E+00atm> (1)
79.3852842688451

>  <r_j_Enthalpy_(kcal/mol)_298.15K_1.00E+00atm> (1)
4.76395750673347

>  <r_j_Free_Energy_(kcal/mol)_298.15K_1.00E+00atm> (1)
-18.9047649980227

>  <r_j_Internal_Energy_(kcal/mol)_298.15K_1.00E+00atm> (1)
4.17147191790619

>  <r_j_Heat_Capacity_(cal/mol/K)_298.15K_1.00E+00atm> (1)
24.9885001607639

>  <r_j_ln(Q)_298.15K_1.00E+00atm> (1)
31.9075524443413

>  <r_j_Total_Internal_Energy_(au)_298.15K_1.00E+00atm> (1)
-308.642974763869

>  <r_j_Total_Enthalpy_(au)_298.15K_1.00E+00atm> (1)
-308.642030577976

>  <r_j_Total_Free_Energy_(au)_298.15K_1.00E+00atm> (1)
-308.679749088431

>  <r_lp_tautomer_probability> (1)
1

>  <r_epik_Ionization_Penalty> (1)
  0.0000

>  <r_epik_Ionization_Penalty_Charging> (1)
  0.0000

>  <r_epik_Ionization_Penalty_Neutral> (1)
  0.0000

>  <r_epik_State_Penalty> (1)
  0.0000

>  <r_epik_Charging_Adjusted_Penalty> (1)
0

>  <i_epik_Tot_Q> (1)
0

>  <i_epik_Tot_abs_Q> (1)
0

>  <s_lp_Force_Field> (1)
S-OPLS

>  <r_lp_Energy> (1)
-3.00656

>  <b_lp_Chiralities_Consistent> (1)
1

$$$$
