19460_1,7-Octadiene
                    3D
 Schrodinger Suite 2021-3.
 22 21  0  0  1  0            999 V2000
   -2.8864    2.0512   -0.9043 C   0  0  0  0  0  0
   -2.1221    1.4750    0.0234 C   0  0  0  0  0  0
   -0.6187    1.4763    0.0361 C   0  0  0  0  0  0
   -0.0230    0.0597   -0.0642 C   0  0  0  0  0  0
    1.5085    0.0507   -0.0212 C   0  0  0  0  0  0
    2.1049   -1.3633   -0.1499 C   0  0  0  0  0  0
    3.6066   -1.3679   -0.0770 C   0  0  0  0  0  0
    4.4252   -1.7678   -1.0499 C   0  0  0  0  0  0
   -2.4531    2.5946   -1.7410 H   0  0  0  0  0  0
   -3.9706    2.0037   -0.8644 H   0  0  0  0  0  0
   -2.5999    0.9357    0.8431 H   0  0  0  0  0  0
   -0.2389    2.0938   -0.7878 H   0  0  0  0  0  0
   -0.2605    1.9414    0.9668 H   0  0  0  0  0  0
   -0.4164   -0.5606    0.7535 H   0  0  0  0  0  0
   -0.3698   -0.4078   -0.9951 H   0  0  0  0  0  0
    1.9051    0.6798   -0.8288 H   0  0  0  0  0  0
    1.8516    0.5075    0.9179 H   0  0  0  0  0  0
    1.6970   -1.9900    0.6574 H   0  0  0  0  0  0
    1.7757   -1.8164   -1.0936 H   0  0  0  0  0  0
    4.0343   -0.9910    0.8537 H   0  0  0  0  0  0
    4.0428   -2.1458   -1.9954 H   0  0  0  0  0  0
    5.5052   -1.7345   -0.9405 H   0  0  0  0  0  0
  1  2  2  0  0  0
  1  9  1  0  0  0
  1 10  1  0  0  0
  2  3  1  0  0  0
  2 11  1  0  0  0
  3  4  1  0  0  0
  3 12  1  0  0  0
  3 13  1  0  0  0
  4  5  1  0  0  0
  4 14  1  0  0  0
  4 15  1  0  0  0
  5  6  1  0  0  0
  5 16  1  0  0  0
  5 17  1  0  0  0
  6  7  1  0  0  0
  6 18  1  0  0  0
  6 19  1  0  0  0
  7  8  2  0  0  0
  7 20  1  0  0  0
  8 21  1  0  0  0
  8 22  1  0  0  0
M  END
>  <i_m_Spin_multiplicity> (1)
1

>  <s_j_Task> (1)
Single Point

>  <s_j_QM_Method> (1)
DFT(b3lyp-d3)

>  <s_j_QM_Basis> (1)
cc-pvtz(-f)

>  <i_j_Number_of_canonical_orbitals> (1)
307

>  <i_j_Geometry_convergence_category> (1)
3

>  <r_j_Gas_Phase_Energy> (1)
-313.364781005671

>  <r_j_Final_Energy> (1)
-313.364781005671

>  <r_j_HOMO> (1)
-0.250096587875593

>  <r_j_LUMO> (1)
0.0023758025751959

>  <r_j_Polarizability> (1)
98.3244172172128

>  <r_j_QM_Dipole_(debye)> (1)
0.303936186392182

>  <r_j_QM_Dipole_X_(debye)> (1)
-0.00877343011152949

>  <r_j_QM_Dipole_Y_(debye)> (1)
-0.0282126655963661

>  <r_j_QM_Dipole_Z_(debye)> (1)
0.302496740185161

>  <r_j_Lowest_Frequency_(cm-1)> (1)
78.919290250487

>  <r_j_Highest_Frequency_(cm-1)> (1)
3168.66227251178

>  <r_j_2nd_Lowest_Frequency_(cm-1)> (1)
109.680093366466

>  <i_j_Num_Negative_Frequencies> (1)
0

>  <r_j_Zero_Point_Energy_(kcal/mol)> (1)
124.538271136468

>  <r_j_Entropy_(cal/mol/K)_298.15K_1.00E+00atm> (1)
93.8630879434626

>  <r_j_Enthalpy_(kcal/mol)_298.15K_1.00E+00atm> (1)
6.49575965214189

>  <r_j_Free_Energy_(kcal/mol)_298.15K_1.00E+00atm> (1)
-21.4895200182015

>  <r_j_Internal_Energy_(kcal/mol)_298.15K_1.00E+00atm> (1)
5.90327406331462

>  <r_j_Heat_Capacity_(cal/mol/K)_298.15K_1.00E+00atm> (1)
34.5175169927659

>  <r_j_ln(Q)_298.15K_1.00E+00atm> (1)
36.2701142836847

>  <r_j_Total_Internal_Energy_(au)_298.15K_1.00E+00atm> (1)
-313.156909170366

>  <r_j_Total_Enthalpy_(au)_298.15K_1.00E+00atm> (1)
-313.155964984474

>  <r_j_Total_Free_Energy_(au)_298.15K_1.00E+00atm> (1)
-313.200562366678

>  <r_lp_tautomer_probability> (1)
1

>  <r_epik_Ionization_Penalty> (1)
  0.0000

>  <r_epik_Ionization_Penalty_Charging> (1)
  0.0000

>  <r_epik_Ionization_Penalty_Neutral> (1)
  0.0000

>  <r_epik_State_Penalty> (1)
  0.0000

>  <r_epik_Charging_Adjusted_Penalty> (1)
0

>  <i_epik_Tot_Q> (1)
0

>  <i_epik_Tot_abs_Q> (1)
0

>  <s_lp_Force_Field> (1)
S-OPLS

>  <r_lp_Energy> (1)
-2.2335

>  <b_lp_Chiralities_Consistent> (1)
1

$$$$
