19540_Pentylcyclopentane
                    3D
 Schrodinger Suite 2021-3.
 30 30  0  0  1  0            999 V2000
   -2.1832    1.5058    0.1458 C   0  0  0  0  0  0
   -0.6526    1.4780    0.1022 C   0  0  0  0  0  0
   -0.0784    0.0590    0.0131 C   0  0  0  0  0  0
    1.4532    0.0250   -0.0298 C   0  0  0  0  0  0
    2.0301   -1.3936   -0.1173 C   0  0  0  0  0  0
    3.5600   -1.4471   -0.1037 C   0  0  0  0  0  0
    4.1506   -2.8671   -0.1520 C   0  0  0  0  0  0
    5.6419   -2.6363   -0.4575 C   0  0  0  0  0  0
    5.6792   -1.3687   -1.3624 C   0  0  0  0  0  0
    4.2492   -0.7650   -1.3053 C   0  0  0  0  0  0
   -2.5664    2.5297    0.2098 H   0  0  0  0  0  0
   -2.5628    0.9526    1.0127 H   0  0  0  0  0  0
   -2.6114    1.0448   -0.7518 H   0  0  0  0  0  0
   -0.2980    2.0653   -0.7560 H   0  0  0  0  0  0
   -0.2498    1.9744    0.9958 H   0  0  0  0  0  0
   -0.4327   -0.5305    0.8711 H   0  0  0  0  0  0
   -0.4794   -0.4394   -0.8814 H   0  0  0  0  0  0
    1.8024    0.6172   -0.8864 H   0  0  0  0  0  0
    1.8524    0.5230    0.8658 H   0  0  0  0  0  0
    1.6414   -1.9913    0.7194 H   0  0  0  0  0  0
    1.6650   -1.8797   -1.0344 H   0  0  0  0  0  0
    3.9166   -0.9636    0.8200 H   0  0  0  0  0  0
    3.9804   -3.4342    0.7697 H   0  0  0  0  0  0
    3.6745   -3.4257   -0.9704 H   0  0  0  0  0  0
    6.1813   -2.4458    0.4777 H   0  0  0  0  0  0
    6.1175   -3.5036   -0.9252 H   0  0  0  0  0  0
    6.4261   -0.6551   -1.0001 H   0  0  0  0  0  0
    5.9598   -1.6156   -2.3912 H   0  0  0  0  0  0
    3.6931   -1.0183   -2.2181 H   0  0  0  0  0  0
    4.2541    0.3265   -1.2304 H   0  0  0  0  0  0
  1  2  1  0  0  0
  1 11  1  0  0  0
  1 12  1  0  0  0
  1 13  1  0  0  0
  2  3  1  0  0  0
  2 14  1  0  0  0
  2 15  1  0  0  0
  3  4  1  0  0  0
  3 16  1  0  0  0
  3 17  1  0  0  0
  4  5  1  0  0  0
  4 18  1  0  0  0
  4 19  1  0  0  0
  5  6  1  0  0  0
  5 20  1  0  0  0
  5 21  1  0  0  0
  6 10  1  0  0  0
  6  7  1  0  0  0
  6 22  1  0  0  0
  7  8  1  0  0  0
  7 23  1  0  0  0
  7 24  1  0  0  0
  8  9  1  0  0  0
  8 25  1  0  0  0
  8 26  1  0  0  0
  9 10  1  0  0  0
  9 27  1  0  0  0
  9 28  1  0  0  0
 10 29  1  0  0  0
 10 30  1  0  0  0
M  END
>  <i_m_Spin_multiplicity> (1)
1

>  <s_j_Task> (1)
Single Point

>  <s_j_QM_Method> (1)
DFT(b3lyp-d3)

>  <s_j_QM_Basis> (1)
cc-pvtz(-f)

>  <i_j_Number_of_canonical_orbitals> (1)
405

>  <i_j_Geometry_convergence_category> (1)
3

>  <r_j_Gas_Phase_Energy> (1)
-393.28215090151

>  <r_j_Final_Energy> (1)
-393.28215090151

>  <r_j_HOMO> (1)
-0.303027758503985

>  <r_j_LUMO> (1)
0.0235128519313632

>  <r_j_Polarizability> (1)
119.000559436496

>  <r_j_QM_Dipole_(debye)> (1)
0.0947650428502187

>  <r_j_QM_Dipole_X_(debye)> (1)
0.0515883490304711

>  <r_j_QM_Dipole_Y_(debye)> (1)
0.0503913098273518

>  <r_j_QM_Dipole_Z_(debye)> (1)
0.0614798461660235

>  <r_j_Lowest_Frequency_(cm-1)> (1)
73.0579058325139

>  <r_j_Highest_Frequency_(cm-1)> (1)
3048.60129203564

>  <r_j_2nd_Lowest_Frequency_(cm-1)> (1)
94.1330712453443

>  <i_j_Num_Negative_Frequencies> (1)
0

>  <r_j_Zero_Point_Energy_(kcal/mol)> (1)
176.901251692563

>  <r_j_Entropy_(cal/mol/K)_298.15K_1.00E+00atm> (1)
102.216953500074

>  <r_j_Enthalpy_(kcal/mol)_298.15K_1.00E+00atm> (1)
7.56986422518313

>  <r_j_Free_Energy_(kcal/mol)_298.15K_1.00E+00atm> (1)
-22.906120460864

>  <r_j_Internal_Energy_(kcal/mol)_298.15K_1.00E+00atm> (1)
6.97737863635586

>  <r_j_Heat_Capacity_(cal/mol/K)_298.15K_1.00E+00atm> (1)
42.8010374165572

>  <r_j_ln(Q)_298.15K_1.00E+00atm> (1)
38.6610592608722

>  <r_j_Total_Internal_Energy_(au)_298.15K_1.00E+00atm> (1)
-392.989121649969

>  <r_j_Total_Enthalpy_(au)_298.15K_1.00E+00atm> (1)
-392.988177464077

>  <r_j_Total_Free_Energy_(au)_298.15K_1.00E+00atm> (1)
-393.036744037401

>  <r_lp_tautomer_probability> (1)
1

>  <r_epik_Ionization_Penalty> (1)
  0.0000

>  <r_epik_Ionization_Penalty_Charging> (1)
  0.0000

>  <r_epik_Ionization_Penalty_Neutral> (1)
  0.0000

>  <r_epik_State_Penalty> (1)
  0.0000

>  <r_epik_Charging_Adjusted_Penalty> (1)
0

>  <i_epik_Tot_Q> (1)
0

>  <i_epik_Tot_abs_Q> (1)
0

>  <s_lp_Force_Field> (1)
S-OPLS

>  <r_lp_Energy> (1)
8.81805

>  <b_lp_Chiralities_Consistent> (1)
1

$$$$
