19589_4-methyl-1-hexene
                    3D
 Schrodinger Suite 2021-3.
 21 20  0  0  1  0            999 V2000
   -0.6884    1.4983   -0.1176 C   0  0  0  0  0  0
   -0.0813    0.0919   -0.0541 C   0  0  0  0  0  0
    1.4592    0.0599   -0.0080 C   0  0  0  0  0  0
    2.0861    0.7294   -1.2398 C   0  0  0  0  0  0
    2.0019   -1.3863    0.1268 C   0  0  0  0  0  0
    1.5789   -2.1064    1.3783 C   0  0  0  0  0  0
    2.3940   -2.4251    2.3844 C   0  0  0  0  0  0
   -1.7801    1.4569   -0.0457 H   0  0  0  0  0  0
   -0.4418    2.0109   -1.0524 H   0  0  0  0  0  0
   -0.3244    2.1202    0.7086 H   0  0  0  0  0  0
   -0.4752   -0.4154    0.8344 H   0  0  0  0  0  0
   -0.4216   -0.4954   -0.9195 H   0  0  0  0  0  0
    1.7799    0.6133    0.8872 H   0  0  0  0  0  0
    1.7579    0.2312   -2.1608 H   0  0  0  0  0  0
    3.1795    0.6744   -1.2036 H   0  0  0  0  0  0
    1.8126    1.7856   -1.3159 H   0  0  0  0  0  0
    1.6726   -1.9574   -0.7549 H   0  0  0  0  0  0
    3.0978   -1.3542    0.0856 H   0  0  0  0  0  0
    0.5252   -2.3738    1.4549 H   0  0  0  0  0  0
    3.4551   -2.1864    2.3548 H   0  0  0  0  0  0
    2.0356   -2.9375    3.2726 H   0  0  0  0  0  0
  1  2  1  0  0  0
  1  8  1  0  0  0
  1  9  1  0  0  0
  1 10  1  0  0  0
  2  3  1  0  0  0
  2 11  1  0  0  0
  2 12  1  0  0  0
  3  4  1  0  0  0
  3  5  1  0  0  0
  3 13  1  0  0  0
  4 14  1  0  0  0
  4 15  1  0  0  0
  4 16  1  0  0  0
  5  6  1  0  0  0
  5 17  1  0  0  0
  5 18  1  0  0  0
  6  7  2  0  0  0
  6 19  1  0  0  0
  7 20  1  0  0  0
  7 21  1  0  0  0
M  END
>  <i_m_Spin_multiplicity> (1)
1

>  <s_j_Task> (1)
Single Point

>  <s_j_QM_Method> (1)
DFT(b3lyp-d3)

>  <s_j_QM_Basis> (1)
cc-pvtz(-f)

>  <i_j_Number_of_canonical_orbitals> (1)
285

>  <i_j_Geometry_convergence_category> (1)
3

>  <r_j_Gas_Phase_Energy> (1)
-275.273048286972

>  <r_j_Final_Energy> (1)
-275.273048286972

>  <r_j_HOMO> (1)
-0.275488933438917

>  <r_j_LUMO> (1)
-0.0120545251538334

>  <r_j_Polarizability> (1)
86.0872532121636

>  <r_j_QM_Dipole_(debye)> (1)
0.339208282165259

>  <r_j_QM_Dipole_X_(debye)> (1)
-0.144966470464086

>  <r_j_QM_Dipole_Y_(debye)> (1)
0.212231894113717

>  <r_j_QM_Dipole_Z_(debye)> (1)
-0.22136983591175

>  <r_j_Lowest_Frequency_(cm-1)> (1)
107.92566940898

>  <r_j_Highest_Frequency_(cm-1)> (1)
3166.13029982433

>  <r_j_2nd_Lowest_Frequency_(cm-1)> (1)
123.862180920095

>  <i_j_Num_Negative_Frequencies> (1)
0

>  <r_j_Zero_Point_Energy_(kcal/mol)> (1)
121.350295327553

>  <r_j_Entropy_(cal/mol/K)_298.15K_1.00E+00atm> (1)
88.3540172964604

>  <r_j_Enthalpy_(kcal/mol)_298.15K_1.00E+00atm> (1)
5.94784899369228

>  <r_j_Free_Energy_(kcal/mol)_298.15K_1.00E+00atm> (1)
-20.3949012632474

>  <r_j_Internal_Energy_(kcal/mol)_298.15K_1.00E+00atm> (1)
5.355363404865

>  <r_j_Heat_Capacity_(cal/mol/K)_298.15K_1.00E+00atm> (1)
32.0585031843011

>  <r_j_ln(Q)_298.15K_1.00E+00atm> (1)
34.4226115332453

>  <r_j_Total_Internal_Energy_(au)_298.15K_1.00E+00atm> (1)
-275.071129965752

>  <r_j_Total_Enthalpy_(au)_298.15K_1.00E+00atm> (1)
-275.070185779859

>  <r_j_Total_Free_Energy_(au)_298.15K_1.00E+00atm> (1)
-275.112165624812

>  <r_lp_tautomer_probability> (1)
1

>  <r_epik_Ionization_Penalty> (1)
  0.0000

>  <r_epik_Ionization_Penalty_Charging> (1)
  0.0000

>  <r_epik_Ionization_Penalty_Neutral> (1)
  0.0000

>  <r_epik_State_Penalty> (1)
  0.0000

>  <r_epik_Charging_Adjusted_Penalty> (1)
0

>  <i_epik_Tot_Q> (1)
0

>  <i_epik_Tot_abs_Q> (1)
0

>  <s_lp_Force_Field> (1)
S-OPLS

>  <r_lp_Energy> (1)
1.34384

>  <b_lp_Chiralities_Consistent> (1)
1

$$$$
