19602_2-pentylfuran
                    3D
 Schrodinger Suite 2021-3.
 24 24  0  0  1  0            999 V2000
   -2.1185    1.4784   -0.0275 C   0  0  0  0  0  0
   -0.5885    1.4511    0.0289 C   0  0  0  0  0  0
   -0.0133    0.0301    0.0086 C   0  0  0  0  0  0
    1.5170   -0.0006    0.0484 C   0  0  0  0  0  0
    2.0899   -1.4304    0.0162 C   0  0  0  0  0  0
    3.5793   -1.4637    0.0051 C   0  0  0  0  0  0
    4.5234   -1.9160    0.8784 C   0  0  0  0  0  0
    5.8023   -1.6206    0.2966 C   0  0  0  0  0  0
    5.5429   -1.0077   -0.8884 C   0  0  0  0  0  0
    4.1946   -0.9014   -1.0848 O   0  0  0  0  0  0
   -2.5038    2.5031   -0.0119 H   0  0  0  0  0  0
   -2.5542    0.9448    0.8251 H   0  0  0  0  0  0
   -2.4873    0.9970   -0.9405 H   0  0  0  0  0  0
   -0.1781    2.0173   -0.8181 H   0  0  0  0  0  0
   -0.2429    1.9675    0.9347 H   0  0  0  0  0  0
   -0.4148   -0.5371    0.8610 H   0  0  0  0  0  0
   -0.3649   -0.4907   -0.8938 H   0  0  0  0  0  0
    1.9219    0.5598   -0.8032 H   0  0  0  0  0  0
    1.8781    0.5080    0.9519 H   0  0  0  0  0  0
    1.7428   -1.9946    0.8892 H   0  0  0  0  0  0
    1.7038   -1.9523   -0.8703 H   0  0  0  0  0  0
    4.3304   -2.4013    1.8242 H   0  0  0  0  0  0
    6.7768   -1.8381    0.7094 H   0  0  0  0  0  0
    6.1668   -0.6068   -1.6719 H   0  0  0  0  0  0
  1  2  1  0  0  0
  1 11  1  0  0  0
  1 12  1  0  0  0
  1 13  1  0  0  0
  2  3  1  0  0  0
  2 14  1  0  0  0
  2 15  1  0  0  0
  3  4  1  0  0  0
  3 16  1  0  0  0
  3 17  1  0  0  0
  4  5  1  0  0  0
  4 18  1  0  0  0
  4 19  1  0  0  0
  5  6  1  0  0  0
  5 20  1  0  0  0
  5 21  1  0  0  0
  6 10  1  0  0  0
  6  7  2  0  0  0
  7  8  1  0  0  0
  7 22  1  0  0  0
  8  9  2  0  0  0
  8 23  1  0  0  0
  9 10  1  0  0  0
  9 24  1  0  0  0
M  END
>  <i_m_Spin_multiplicity> (1)
1

>  <s_j_Task> (1)
Single Point

>  <s_j_QM_Method> (1)
DFT(b3lyp-d3)

>  <s_j_QM_Basis> (1)
cc-pvtz(-f)

>  <i_j_Number_of_canonical_orbitals> (1)
353

>  <i_j_Geometry_convergence_category> (1)
0

>  <r_j_Gas_Phase_Energy> (1)
-426.759198578028

>  <r_j_Final_Energy> (1)
-426.759198578028

>  <r_j_HOMO> (1)
-0.227850842347411

>  <r_j_LUMO> (1)
0.00131374393209547

>  <r_j_Polarizability> (1)
107.765000638417

>  <r_j_QM_Dipole_(debye)> (1)
0.517878280739857

>  <r_j_QM_Dipole_X_(debye)> (1)
-0.255250218992292

>  <r_j_QM_Dipole_Y_(debye)> (1)
-0.039290809824475

>  <r_j_QM_Dipole_Z_(debye)> (1)
0.4488891529429

>  <r_j_Lowest_Frequency_(cm-1)> (1)
75.6590144596838

>  <r_j_Highest_Frequency_(cm-1)> (1)
3233.36172565013

>  <r_j_2nd_Lowest_Frequency_(cm-1)> (1)
85.7725718064121

>  <i_j_Num_Negative_Frequencies> (1)
0

>  <r_j_Zero_Point_Energy_(kcal/mol)> (1)
132.564693492924

>  <r_j_Entropy_(cal/mol/K)_298.15K_1.00E+00atm> (1)
97.7416589451579

>  <r_j_Enthalpy_(kcal/mol)_298.15K_1.00E+00atm> (1)
6.87825823772798

>  <r_j_Free_Energy_(kcal/mol)_298.15K_1.00E+00atm> (1)
-22.2634173767708

>  <r_j_Internal_Energy_(kcal/mol)_298.15K_1.00E+00atm> (1)
6.2857726489007

>  <r_j_Heat_Capacity_(cal/mol/K)_298.15K_1.00E+00atm> (1)
38.0343553432671

>  <r_j_ln(Q)_298.15K_1.00E+00atm> (1)
37.5763019330775

>  <r_j_Total_Internal_Energy_(au)_298.15K_1.00E+00atm> (1)
-426.537926274135

>  <r_j_Total_Enthalpy_(au)_298.15K_1.00E+00atm> (1)
-426.536982088243

>  <r_j_Total_Free_Energy_(au)_298.15K_1.00E+00atm> (1)
-426.583422304698

>  <r_lp_tautomer_probability> (1)
1

>  <r_epik_Ionization_Penalty> (1)
  0.0000

>  <r_epik_Ionization_Penalty_Charging> (1)
  0.0000

>  <r_epik_Ionization_Penalty_Neutral> (1)
  0.0000

>  <r_epik_State_Penalty> (1)
  0.0000

>  <r_epik_Charging_Adjusted_Penalty> (1)
0

>  <i_epik_Tot_Q> (1)
0

>  <i_epik_Tot_abs_Q> (1)
0

>  <s_lp_Force_Field> (1)
S-OPLS

>  <r_lp_Energy> (1)
2.69683

>  <b_lp_Chiralities_Consistent> (1)
1

$$$$
