19633_Geranyl acetone
                    3D
 Schrodinger Suite 2021-3.
 36 35  0  0  1  0            999 V2000
   -4.1639    2.4075   -0.6237 C   0  0  0  0  0  0
   -2.6543    2.4140   -0.5893 C   0  0  0  0  0  0
   -1.9800    1.7156    0.3367 C   0  0  0  0  0  0
   -0.4891    1.5827    0.4886 C   0  0  0  0  0  0
    0.0276    0.2246   -0.0551 C   0  0  0  0  0  0
    1.5293    0.0623    0.0662 C   0  0  0  0  0  0
    2.3043    0.1976   -1.0209 C   0  0  0  0  0  0
    3.7999    0.0901   -1.1238 C   0  0  0  0  0  0
    4.2286   -1.1321   -1.9785 C   0  0  0  0  0  0
    5.7458   -1.1810   -2.0943 C   0  0  0  0  0  0
    6.4243   -1.7080   -1.2325 O   0  0  0  0  0  0
    6.3645   -0.4989   -3.3011 C   0  0  0  0  0  0
    2.0411   -0.2233    1.4567 C   0  0  0  0  0  0
   -2.0125    3.2507   -1.6687 C   0  0  0  0  0  0
   -4.5647    3.4245   -0.5181 H   0  0  0  0  0  0
   -4.5919    1.7897    0.1709 H   0  0  0  0  0  0
   -4.5329    2.0281   -1.5862 H   0  0  0  0  0  0
   -2.5649    1.1324    1.0495 H   0  0  0  0  0  0
    0.0439    2.3858   -0.0296 H   0  0  0  0  0  0
   -0.2247    1.6726    1.5502 H   0  0  0  0  0  0
   -0.4821   -0.5873    0.4829 H   0  0  0  0  0  0
   -0.2768    0.1422   -1.1043 H   0  0  0  0  0  0
    1.8038    0.3898   -1.9716 H   0  0  0  0  0  0
    4.1970    1.0045   -1.5883 H   0  0  0  0  0  0
    4.2763    0.0077   -0.1434 H   0  0  0  0  0  0
    3.8894   -2.0480   -1.4867 H   0  0  0  0  0  0
    3.7602   -1.0715   -2.9682 H   0  0  0  0  0  0
    6.1094   -1.0588   -4.2092 H   0  0  0  0  0  0
    7.4491   -0.4551   -3.1927 H   0  0  0  0  0  0
    5.9566    0.5107   -3.4273 H   0  0  0  0  0  0
    1.5719   -1.1325    1.8538 H   0  0  0  0  0  0
    1.7802    0.5879    2.1475 H   0  0  0  0  0  0
    3.1230   -0.3599    1.4999 H   0  0  0  0  0  0
   -2.3450    4.2948   -1.5991 H   0  0  0  0  0  0
   -2.3196    2.8943   -2.6608 H   0  0  0  0  0  0
   -0.9216    3.2411   -1.6344 H   0  0  0  0  0  0
  1  2  1  0  0  0
  1 15  1  0  0  0
  1 16  1  0  0  0
  1 17  1  0  0  0
  2  3  2  0  0  0
  2 14  1  0  0  0
  3  4  1  0  0  0
  3 18  1  0  0  0
  4  5  1  0  0  0
  4 19  1  0  0  0
  4 20  1  0  0  0
  5  6  1  0  0  0
  5 21  1  0  0  0
  5 22  1  0  0  0
  6  7  2  0  0  0
  6 13  1  0  0  0
  7  8  1  0  0  0
  7 23  1  0  0  0
  8  9  1  0  0  0
  8 24  1  0  0  0
  8 25  1  0  0  0
  9 10  1  0  0  0
  9 26  1  0  0  0
  9 27  1  0  0  0
 10 11  2  0  0  0
 10 12  1  0  0  0
 12 28  1  0  0  0
 12 29  1  0  0  0
 12 30  1  0  0  0
 13 31  1  0  0  0
 13 32  1  0  0  0
 13 33  1  0  0  0
 14 34  1  0  0  0
 14 35  1  0  0  0
 14 36  1  0  0  0
M  END
>  <i_m_Spin_multiplicity> (1)
1

>  <s_j_Task> (1)
Single Point

>  <s_j_QM_Method> (1)
DFT(b3lyp-d3)

>  <s_j_QM_Basis> (1)
cc-pvtz(-f)

>  <i_j_Number_of_canonical_orbitals> (1)
515

>  <i_j_Geometry_convergence_category> (1)
3

>  <r_j_Gas_Phase_Energy> (1)
-584.062980491969

>  <r_j_Final_Energy> (1)
-584.062980491969

>  <r_j_HOMO> (1)
-0.221756306773259

>  <r_j_LUMO> (1)
-0.0175776664331138

>  <r_j_Polarizability> (1)
165.21907760711

>  <r_j_QM_Dipole_(debye)> (1)
2.96349326788043

>  <r_j_QM_Dipole_X_(debye)> (1)
-1.94616428069945

>  <r_j_QM_Dipole_Y_(debye)> (1)
1.4876125063096

>  <r_j_QM_Dipole_Z_(debye)> (1)
-1.66785670019144

>  <r_j_Lowest_Frequency_(cm-1)> (1)
44.6081444785589

>  <r_j_Highest_Frequency_(cm-1)> (1)
3098.96370599518

>  <r_j_2nd_Lowest_Frequency_(cm-1)> (1)
65.961746589578

>  <i_j_Num_Negative_Frequencies> (1)
0

>  <r_j_Zero_Point_Energy_(kcal/mol)> (1)
200.986265584015

>  <r_j_Entropy_(cal/mol/K)_298.15K_1.00E+00atm> (1)
127.351073685635

>  <r_j_Enthalpy_(kcal/mol)_298.15K_1.00E+00atm> (1)
10.9363936736289

>  <r_j_Free_Energy_(kcal/mol)_298.15K_1.00E+00atm> (1)
-27.0333289457432

>  <r_j_Internal_Energy_(kcal/mol)_298.15K_1.00E+00atm> (1)
10.3439080848016

>  <r_j_Heat_Capacity_(cal/mol/K)_298.15K_1.00E+00atm> (1)
62.2690459994933

>  <r_j_ln(Q)_298.15K_1.00E+00atm> (1)
45.6269814076848

>  <r_j_Total_Internal_Energy_(au)_298.15K_1.00E+00atm> (1)
-583.726204421213

>  <r_j_Total_Enthalpy_(au)_298.15K_1.00E+00atm> (1)
-583.725260235321

>  <r_j_Total_Free_Energy_(au)_298.15K_1.00E+00atm> (1)
-583.785768840266

>  <r_lp_tautomer_probability> (1)
1

>  <r_epik_Ionization_Penalty> (1)
  0.0000

>  <r_epik_Ionization_Penalty_Charging> (1)
  0.0000

>  <r_epik_Ionization_Penalty_Neutral> (1)
  0.0000

>  <r_epik_State_Penalty> (1)
  0.0000

>  <r_epik_Charging_Adjusted_Penalty> (1)
0

>  <i_epik_Tot_Q> (1)
0

>  <i_epik_Tot_abs_Q> (1)
0

>  <s_lp_Force_Field> (1)
S-OPLS

>  <r_lp_Energy> (1)
-5.87379

>  <b_lp_Chiralities_Consistent> (1)
1

$$$$
