196_Hexanedioic acid
                    3D
 Schrodinger Suite 2021-3.
 18 17  0  0  1  0            999 V2000
   -0.0153    0.0225   -0.0799 C   0  0  0  0  0  0
    1.5148   -0.0269    0.0790 C   0  0  0  0  0  0
    2.1446   -1.3975   -0.1930 C   0  0  0  0  0  0
    3.7085   -1.5040   -0.0399 C   0  0  0  0  0  0
    4.3200   -0.4583    0.3054 O   0  0  0  0  0  0
    4.1819   -2.6481   -0.2840 O   0  5  0  0  0  0
   -0.6453    1.3929    0.1926 C   0  0  0  0  0  0
   -2.2087    1.5003    0.0358 C   0  0  0  0  0  0
   -2.6836    2.6413    0.2910 O   0  0  0  0  0  0
   -2.8184    0.4583   -0.3237 O   0  5  0  0  0  0
   -0.3004   -0.2967   -1.0922 H   0  0  0  0  0  0
   -0.4864   -0.7167    0.5834 H   0  0  0  0  0  0
    1.9862    0.7119   -0.5845 H   0  0  0  0  0  0
    1.7996    0.2928    1.0913 H   0  0  0  0  0  0
    1.6980   -2.1557    0.4700 H   0  0  0  0  0  0
    1.8905   -1.7347   -1.2105 H   0  0  0  0  0  0
   -0.3932    1.7292    1.2109 H   0  0  0  0  0  0
   -0.1969    2.1516   -0.4688 H   0  0  0  0  0  0
  1  2  1  0  0  0
  1  7  1  0  0  0
  1 11  1  0  0  0
  1 12  1  0  0  0
  2  3  1  0  0  0
  2 13  1  0  0  0
  2 14  1  0  0  0
  3  4  1  0  0  0
  3 15  1  0  0  0
  3 16  1  0  0  0
  4  5  2  0  0  0
  4  6  1  0  0  0
  7  8  1  0  0  0
  7 17  1  0  0  0
  7 18  1  0  0  0
  8  9  2  0  0  0
  8 10  1  0  0  0
M  END
>  <i_m_Spin_multiplicity> (1)
1

>  <s_j_Task> (1)
Single Point

>  <s_j_QM_Method> (1)
DFT(b3lyp-d3)

>  <s_j_QM_Basis> (1)
cc-pvtz(-f)

>  <i_j_Number_of_canonical_orbitals> (1)
300

>  <i_j_Geometry_convergence_category> (1)
0

>  <r_j_Gas_Phase_Energy> (1)
-534.590517015415

>  <r_j_Final_Energy> (1)
-534.590517015415

>  <r_j_HOMO> (1)
0.0644915139670024

>  <r_j_LUMO> (1)
0.276677282106316

>  <r_j_Polarizability> (1)
90.3197540523527

>  <r_j_QM_Dipole_(debye)> (1)
0.00650503401036097

>  <r_j_QM_Dipole_X_(debye)> (1)
-0.000526516434362138

>  <r_j_QM_Dipole_Y_(debye)> (1)
-0.000966194933017106

>  <r_j_QM_Dipole_Z_(debye)> (1)
0.00641129591203772

>  <r_j_Lowest_Frequency_(cm-1)> (1)
63.5632083056615

>  <r_j_Highest_Frequency_(cm-1)> (1)
2999.74739487937

>  <r_j_2nd_Lowest_Frequency_(cm-1)> (1)
74.1182172123617

>  <i_j_Num_Negative_Frequencies> (1)
0

>  <r_j_Zero_Point_Energy_(kcal/mol)> (1)
84.7283448242688

>  <r_j_Entropy_(cal/mol/K)_298.15K_1.00E+00atm> (1)
99.8400787494805

>  <r_j_Enthalpy_(kcal/mol)_298.15K_1.00E+00atm> (1)
6.9133269693216

>  <r_j_Free_Energy_(kcal/mol)_298.15K_1.00E+00atm> (1)
-22.853992509836

>  <r_j_Internal_Energy_(kcal/mol)_298.15K_1.00E+00atm> (1)
6.32084138049433

>  <r_j_Heat_Capacity_(cal/mol/K)_298.15K_1.00E+00atm> (1)
35.2419387260221

>  <r_j_ln(Q)_298.15K_1.00E+00atm> (1)
38.5730774567389

>  <r_j_Total_Internal_Energy_(au)_298.15K_1.00E+00atm> (1)
-534.445420900444

>  <r_j_Total_Enthalpy_(au)_298.15K_1.00E+00atm> (1)
-534.444476714552

>  <r_j_Total_Free_Energy_(au)_298.15K_1.00E+00atm> (1)
-534.491913957975

>  <r_epik_Ionization_Penalty> (1)
  0.0107

>  <r_epik_Ionization_Penalty_Charging> (1)
  0.0107

>  <r_epik_Ionization_Penalty_Neutral> (1)
  0.0000

>  <r_epik_State_Penalty> (1)
  0.0082

>  <r_epik_Charging_Adjusted_Penalty> (1)
0.0188851116146502

>  <i_epik_Tot_Q> (1)
-2

>  <i_epik_Tot_abs_Q> (1)
2

>  <s_lp_Force_Field> (1)
S-OPLS

>  <r_lp_Energy> (1)
12.796804

>  <b_lp_Chiralities_Consistent> (1)
1

$$$$
