19753_1,2,8-trimethylnaphthalene
                    3D
 Schrodinger Suite 2021-3.
 27 28  0  0  1  0            999 V2000
   -0.0408   -0.3411    0.0086 C   0  0  0  0  0  0
    1.4548   -0.0415    0.0016 C   0  0  0  0  0  0
    2.1060    1.2510    0.0001 C   0  0  0  0  0  0
    1.4601    2.5510   -0.0021 C   0  0  0  0  0  0
    2.2258    3.7170    0.0009 C   0  0  0  0  0  0
    3.6407    3.6500    0.0044 C   0  0  0  0  0  0
    4.2849    2.4466    0.0031 C   0  0  0  0  0  0
    3.5538    1.2329    0.0003 C   0  0  0  0  0  0
    4.2844    0.0187   -0.0027 C   0  0  0  0  0  0
    3.6338   -1.1872   -0.0047 C   0  0  0  0  0  0
    2.2296   -1.1935   -0.0018 C   0  0  0  0  0  0
    1.6094    5.1043    0.0014 C   0  0  0  0  0  0
   -0.0473    2.7154   -0.0094 C   0  0  0  0  0  0
   -0.6962    0.5164    0.0216 H   0  0  0  0  0  0
   -0.2896   -0.9511    0.8845 H   0  0  0  0  0  0
   -0.3022   -0.9347   -0.8749 H   0  0  0  0  0  0
    4.2128    4.5737    0.0075 H   0  0  0  0  0  0
    5.3707    2.3995    0.0043 H   0  0  0  0  0  0
    5.3700    0.0687   -0.0034 H   0  0  0  0  0  0
    4.1848   -2.1229   -0.0079 H   0  0  0  0  0  0
    1.7151   -2.1519   -0.0016 H   0  0  0  0  0  0
    2.3913    5.8682    0.0029 H   0  0  0  0  0  0
    0.9841    5.2797    0.8839 H   0  0  0  0  0  0
    0.9846    5.2822   -0.8811 H   0  0  0  0  0  0
   -0.3355    3.7646   -0.0197 H   0  0  0  0  0  0
   -0.5094    2.2729    0.8780 H   0  0  0  0  0  0
   -0.5025    2.2566   -0.8922 H   0  0  0  0  0  0
  1  2  1  0  0  0
  1 14  1  0  0  0
  1 15  1  0  0  0
  1 16  1  0  0  0
  2 11  1  0  0  0
  2  3  2  0  0  0
  3  8  1  0  0  0
  3  4  1  0  0  0
  4  5  2  0  0  0
  4 13  1  0  0  0
  5  6  1  0  0  0
  5 12  1  0  0  0
  6  7  2  0  0  0
  6 17  1  0  0  0
  7  8  1  0  0  0
  7 18  1  0  0  0
  8  9  2  0  0  0
  9 10  1  0  0  0
  9 19  1  0  0  0
 10 11  2  0  0  0
 10 20  1  0  0  0
 11 21  1  0  0  0
 12 22  1  0  0  0
 12 23  1  0  0  0
 12 24  1  0  0  0
 13 25  1  0  0  0
 13 26  1  0  0  0
 13 27  1  0  0  0
M  END
>  <i_m_Spin_multiplicity> (1)
1

>  <s_j_Task> (1)
Single Point

>  <s_j_QM_Method> (1)
DFT(b3lyp-d3)

>  <s_j_QM_Basis> (1)
cc-pvtz(-f)

>  <i_j_Number_of_canonical_orbitals> (1)
414

>  <i_j_Geometry_convergence_category> (1)
0

>  <r_j_Gas_Phase_Energy> (1)
-503.999206675561

>  <r_j_Final_Energy> (1)
-503.999206675561

>  <r_j_HOMO> (1)
-0.198696968743588

>  <r_j_LUMO> (1)
-0.0351051296023487

>  <r_j_Polarizability> (1)
152.714386948726

>  <r_j_QM_Dipole_(debye)> (1)
0.854107849520231

>  <r_j_QM_Dipole_X_(debye)> (1)
-0.750790914739646

>  <r_j_QM_Dipole_Y_(debye)> (1)
0.407201318370394

>  <r_j_QM_Dipole_Z_(debye)> (1)
0.000554322913177531

>  <r_j_Lowest_Frequency_(cm-1)> (1)
-113.474204634773

>  <r_j_Highest_Frequency_(cm-1)> (1)
3215.44454355154

>  <r_j_2nd_Lowest_Frequency_(cm-1)> (1)
58.5443963796322

>  <i_j_Num_Negative_Frequencies> (1)
1

>  <r_j_Zero_Point_Energy_(kcal/mol)> (1)
144.257753159205

>  <r_j_Entropy_(cal/mol/K)_298.15K_1.00E+00atm> (1)
98.0696235216887

>  <r_j_Enthalpy_(kcal/mol)_298.15K_1.00E+00atm> (1)
7.11689379659515

>  <r_j_Free_Energy_(kcal/mol)_298.15K_1.00E+00atm> (1)
-22.1225644563963

>  <r_j_Internal_Energy_(kcal/mol)_298.15K_1.00E+00atm> (1)
6.52440820776787

>  <r_j_Heat_Capacity_(cal/mol/K)_298.15K_1.00E+00atm> (1)
43.7573995424468

>  <r_j_ln(Q)_298.15K_1.00E+00atm> (1)
37.3385697029091

>  <r_j_Total_Internal_Energy_(au)_298.15K_1.00E+00atm> (1)
-503.758920004881

>  <r_j_Total_Enthalpy_(au)_298.15K_1.00E+00atm> (1)
-503.757975818988

>  <r_j_Total_Free_Energy_(au)_298.15K_1.00E+00atm> (1)
-503.804571861998

>  <r_lp_tautomer_probability> (1)
1

>  <r_epik_Ionization_Penalty> (1)
  0.0000

>  <r_epik_Ionization_Penalty_Charging> (1)
  0.0000

>  <r_epik_Ionization_Penalty_Neutral> (1)
  0.0000

>  <r_epik_State_Penalty> (1)
  0.0000

>  <r_epik_Charging_Adjusted_Penalty> (1)
0

>  <i_epik_Tot_Q> (1)
0

>  <i_epik_Tot_abs_Q> (1)
0

>  <s_lp_Force_Field> (1)
S-OPLS

>  <r_lp_Energy> (1)
34.3653

>  <b_lp_Chiralities_Consistent> (1)
1

$$$$
