19773_2,6,10-Trimethyldodecane
                    3D
 Schrodinger Suite 2021-3.
 47 46  0  0  1  0            999 V2000
   -2.7237    5.2843    1.3600 C   0  0  0  0  0  0
   -2.2838    3.8174    1.2917 C   0  0  0  0  0  0
   -2.6238    3.1035   -0.0321 C   0  0  0  0  0  0
   -4.1381    3.0763   -0.2909 C   0  0  0  0  0  0
   -2.0573    1.6697   -0.0710 C   0  0  0  0  0  0
   -0.5264    1.5669   -0.0542 C   0  0  0  0  0  0
   -0.0329    0.1208   -0.1950 C   0  0  0  0  0  0
    1.4940   -0.0593   -0.0824 C   0  0  0  0  0  0
    2.2338    0.6565   -1.2232 C   0  0  0  0  0  0
    1.8924   -1.5491   -0.0467 C   0  0  0  0  0  0
    1.4754   -2.3057    1.2213 C   0  0  0  0  0  0
    1.9306   -3.7706    1.2123 C   0  0  0  0  0  0
    1.6847   -4.5391    2.5243 C   0  0  0  0  0  0
    2.2880   -5.9484    2.4401 C   0  0  0  0  0  0
    0.1945   -4.6151    2.8882 C   0  0  0  0  0  0
   -2.3705    5.7565    2.2825 H   0  0  0  0  0  0
   -3.8126    5.3891    1.3353 H   0  0  0  0  0  0
   -2.3160    5.8557    0.5177 H   0  0  0  0  0  0
   -1.2010    3.7735    1.4557 H   0  0  0  0  0  0
   -2.7400    3.2563    2.1204 H   0  0  0  0  0  0
   -2.1506    3.6717   -0.8489 H   0  0  0  0  0  0
   -4.6592    2.5501    0.5188 H   0  0  0  0  0  0
   -4.3677    2.5551   -1.2266 H   0  0  0  0  0  0
   -4.5623    4.0820   -0.3621 H   0  0  0  0  0  0
   -2.4726    1.0990    0.7733 H   0  0  0  0  0  0
   -2.4273    1.1727   -0.9788 H   0  0  0  0  0  0
   -0.1226    2.1872   -0.8646 H   0  0  0  0  0  0
   -0.1270    1.9840    0.8790 H   0  0  0  0  0  0
   -0.5275   -0.4832    0.5760 H   0  0  0  0  0  0
   -0.3669   -0.2889   -1.1602 H   0  0  0  0  0  0
    1.8166    0.3943    0.8683 H   0  0  0  0  0  0
    1.9309    0.2480   -2.1955 H   0  0  0  0  0  0
    3.3177    0.5270   -1.1317 H   0  0  0  0  0  0
    2.0305    1.7312   -1.2360 H   0  0  0  0  0  0
    1.4723   -2.0526   -0.9304 H   0  0  0  0  0  0
    2.9838   -1.6236   -0.1504 H   0  0  0  0  0  0
    1.9012   -1.7977    2.0990 H   0  0  0  0  0  0
    0.3874   -2.2617    1.3411 H   0  0  0  0  0  0
    1.4296   -4.3017    0.3889 H   0  0  0  0  0  0
    3.0052   -3.8059    0.9837 H   0  0  0  0  0  0
    2.2028   -3.9956    3.3293 H   0  0  0  0  0  0
    1.7989   -6.5328    1.6506 H   0  0  0  0  0  0
    2.1621   -6.4933    3.3821 H   0  0  0  0  0  0
    3.3589   -5.9129    2.2120 H   0  0  0  0  0  0
   -0.3730   -5.1085    2.0891 H   0  0  0  0  0  0
   -0.2423   -3.6244    3.0457 H   0  0  0  0  0  0
    0.0443   -5.1923    3.8071 H   0  0  0  0  0  0
  1  2  1  0  0  0
  1 16  1  0  0  0
  1 17  1  0  0  0
  1 18  1  0  0  0
  2  3  1  0  0  0
  2 19  1  0  0  0
  2 20  1  0  0  0
  3  4  1  0  0  0
  3  5  1  0  0  0
  3 21  1  0  0  0
  4 22  1  0  0  0
  4 23  1  0  0  0
  4 24  1  0  0  0
  5  6  1  0  0  0
  5 25  1  0  0  0
  5 26  1  0  0  0
  6  7  1  0  0  0
  6 27  1  0  0  0
  6 28  1  0  0  0
  7  8  1  0  0  0
  7 29  1  0  0  0
  7 30  1  0  0  0
  8  9  1  0  0  0
  8 10  1  0  0  0
  8 31  1  0  0  0
  9 32  1  0  0  0
  9 33  1  0  0  0
  9 34  1  0  0  0
 10 11  1  0  0  0
 10 35  1  0  0  0
 10 36  1  0  0  0
 11 12  1  0  0  0
 11 37  1  0  0  0
 11 38  1  0  0  0
 12 13  1  0  0  0
 12 39  1  0  0  0
 12 40  1  0  0  0
 13 14  1  0  0  0
 13 15  1  0  0  0
 13 41  1  0  0  0
 14 42  1  0  0  0
 14 43  1  0  0  0
 14 44  1  0  0  0
 15 45  1  0  0  0
 15 46  1  0  0  0
 15 47  1  0  0  0
M  END
>  <i_m_Spin_multiplicity> (1)
1

>  <s_j_Task> (1)
Single Point

>  <s_j_QM_Method> (1)
DFT(b3lyp-d3)

>  <s_j_QM_Basis> (1)
cc-pvtz(-f)

>  <i_j_Number_of_canonical_orbitals> (1)
629

>  <i_j_Geometry_convergence_category> (1)
3

>  <r_j_Gas_Phase_Energy> (1)
-591.146632405395

>  <r_j_Final_Energy> (1)
-591.146632405395

>  <r_j_HOMO> (1)
-0.290202966575652

>  <r_j_LUMO> (1)
-0.00423943129916839

>  <r_j_Polarizability> (1)
185.502835496773

>  <r_j_QM_Dipole_(debye)> (1)
0.19932002032277

>  <r_j_QM_Dipole_X_(debye)> (1)
0.131919656552219

>  <r_j_QM_Dipole_Y_(debye)> (1)
0.0951501325047897

>  <r_j_QM_Dipole_Z_(debye)> (1)
0.115204717789398

>  <r_j_Lowest_Frequency_(cm-1)> (1)
42.1135391783047

>  <r_j_Highest_Frequency_(cm-1)> (1)
3059.80594777624

>  <r_j_2nd_Lowest_Frequency_(cm-1)> (1)
58.0261534729825

>  <i_j_Num_Negative_Frequencies> (1)
0

>  <r_j_Zero_Point_Energy_(kcal/mol)> (1)
278.624454455244

>  <r_j_Entropy_(cal/mol/K)_298.15K_1.00E+00atm> (1)
136.063935377657

>  <r_j_Enthalpy_(kcal/mol)_298.15K_1.00E+00atm> (1)
12.3584111881849

>  <r_j_Free_Energy_(kcal/mol)_298.15K_1.00E+00atm> (1)
-28.2090511446634

>  <r_j_Internal_Energy_(kcal/mol)_298.15K_1.00E+00atm> (1)
11.7659255993576

>  <r_j_Heat_Capacity_(cal/mol/K)_298.15K_1.00E+00atm> (1)
72.9752819373245

>  <r_j_ln(Q)_298.15K_1.00E+00atm> (1)
47.6113709373058

>  <r_j_Total_Internal_Energy_(au)_298.15K_1.00E+00atm> (1)
-590.683865875267

>  <r_j_Total_Enthalpy_(au)_298.15K_1.00E+00atm> (1)
-590.682921689375

>  <r_j_Total_Free_Energy_(au)_298.15K_1.00E+00atm> (1)
-590.747570056088

>  <r_lp_tautomer_probability> (1)
1

>  <r_epik_Ionization_Penalty> (1)
  0.0000

>  <r_epik_Ionization_Penalty_Charging> (1)
  0.0000

>  <r_epik_Ionization_Penalty_Neutral> (1)
  0.0000

>  <r_epik_State_Penalty> (1)
  0.0000

>  <r_epik_Charging_Adjusted_Penalty> (1)
0

>  <i_epik_Tot_Q> (1)
0

>  <i_epik_Tot_abs_Q> (1)
0

>  <s_lp_Force_Field> (1)
S-OPLS

>  <r_lp_Energy> (1)
9.389727

>  <b_lp_Chiralities_Consistent> (1)
1

$$$$
