19774_2,6,10-trimethyltridecane
                    3D
 Schrodinger Suite 2021-3.
 50 49  0  0  1  0            999 V2000
   -6.1999    4.2339    0.5927 C   0  0  0  0  0  0
   -4.7429    4.3555    0.1345 C   0  0  0  0  0  0
   -4.0536    2.9917   -0.0045 C   0  0  0  0  0  0
   -2.5475    3.0432   -0.3300 C   0  0  0  0  0  0
   -2.2803    3.7266   -1.6804 C   0  0  0  0  0  0
   -1.9467    1.6238   -0.2807 C   0  0  0  0  0  0
   -0.4144    1.5614   -0.3275 C   0  0  0  0  0  0
    0.1195    0.1258   -0.2265 C   0  0  0  0  0  0
    1.6492    0.0073   -0.0780 C   0  0  0  0  0  0
    2.3941    0.6759   -1.2441 C   0  0  0  0  0  0
    2.1012   -1.4607    0.0577 C   0  0  0  0  0  0
    1.5277   -2.2205    1.2613 C   0  0  0  0  0  0
    2.1645   -3.6051    1.4393 C   0  0  0  0  0  0
    1.5177   -4.4869    2.5238 C   0  0  0  0  0  0
    1.6006   -3.8511    3.9194 C   0  0  0  0  0  0
    2.1562   -5.8832    2.5316 C   0  0  0  0  0  0
   -6.6776    5.2154    0.6809 H   0  0  0  0  0  0
   -6.2672    3.7404    1.5692 H   0  0  0  0  0  0
   -6.7871    3.6397   -0.1170 H   0  0  0  0  0  0
   -4.7114    4.8929   -0.8208 H   0  0  0  0  0  0
   -4.1820    4.9718    0.8509 H   0  0  0  0  0  0
   -4.1894    2.4370    0.9349 H   0  0  0  0  0  0
   -4.5677    2.4025   -0.7790 H   0  0  0  0  0  0
   -2.0588    3.6393    0.4572 H   0  0  0  0  0  0
   -2.7695    3.1738   -2.4926 H   0  0  0  0  0  0
   -1.2114    3.7745   -1.9067 H   0  0  0  0  0  0
   -2.6602    4.7521   -1.6991 H   0  0  0  0  0  0
   -2.2860    1.1295    0.6406 H   0  0  0  0  0  0
   -2.3620    1.0317   -1.1101 H   0  0  0  0  0  0
   -0.0520    2.0243   -1.2514 H   0  0  0  0  0  0
   -0.0040    2.1611    0.4983 H   0  0  0  0  0  0
   -0.3613   -0.3599    0.6317 H   0  0  0  0  0  0
   -0.1970   -0.4430   -1.1141 H   0  0  0  0  0  0
    1.9333    0.5296    0.8495 H   0  0  0  0  0  0
    2.0966    0.2280   -2.2006 H   0  0  0  0  0  0
    3.4775    0.5498   -1.1415 H   0  0  0  0  0  0
    2.1915    1.7492   -1.3013 H   0  0  0  0  0  0
    1.8468   -1.9997   -0.8673 H   0  0  0  0  0  0
    3.1982   -1.4796    0.1234 H   0  0  0  0  0  0
    1.6777   -1.6184    2.1671 H   0  0  0  0  0  0
    0.4425   -2.3418    1.1500 H   0  0  0  0  0  0
    2.1173   -4.1402    0.4801 H   0  0  0  0  0  0
    3.2348   -3.4875    1.6664 H   0  0  0  0  0  0
    0.4535   -4.6022    2.2667 H   0  0  0  0  0  0
    2.6463   -3.6725    4.2002 H   0  0  0  0  0  0
    1.1612   -4.5089    4.6772 H   0  0  0  0  0  0
    1.0736   -2.8935    3.9673 H   0  0  0  0  0  0
    3.2213   -5.8209    2.7880 H   0  0  0  0  0  0
    2.0783   -6.3651    1.5507 H   0  0  0  0  0  0
    1.6759   -6.5375    3.2674 H   0  0  0  0  0  0
  1  2  1  0  0  0
  1 17  1  0  0  0
  1 18  1  0  0  0
  1 19  1  0  0  0
  2  3  1  0  0  0
  2 20  1  0  0  0
  2 21  1  0  0  0
  3  4  1  0  0  0
  3 22  1  0  0  0
  3 23  1  0  0  0
  4  5  1  0  0  0
  4  6  1  0  0  0
  4 24  1  0  0  0
  5 25  1  0  0  0
  5 26  1  0  0  0
  5 27  1  0  0  0
  6  7  1  0  0  0
  6 28  1  0  0  0
  6 29  1  0  0  0
  7  8  1  0  0  0
  7 30  1  0  0  0
  7 31  1  0  0  0
  8  9  1  0  0  0
  8 32  1  0  0  0
  8 33  1  0  0  0
  9 10  1  0  0  0
  9 11  1  0  0  0
  9 34  1  0  0  0
 10 35  1  0  0  0
 10 36  1  0  0  0
 10 37  1  0  0  0
 11 12  1  0  0  0
 11 38  1  0  0  0
 11 39  1  0  0  0
 12 13  1  0  0  0
 12 40  1  0  0  0
 12 41  1  0  0  0
 13 14  1  0  0  0
 13 42  1  0  0  0
 13 43  1  0  0  0
 14 15  1  0  0  0
 14 16  1  0  0  0
 14 44  1  0  0  0
 15 45  1  0  0  0
 15 46  1  0  0  0
 15 47  1  0  0  0
 16 48  1  0  0  0
 16 49  1  0  0  0
 16 50  1  0  0  0
M  END
>  <i_m_Spin_multiplicity> (1)
1

>  <s_j_Task> (1)
Single Point

>  <s_j_QM_Method> (1)
DFT(b3lyp-d3)

>  <s_j_QM_Basis> (1)
cc-pvtz(-f)

>  <i_j_Number_of_canonical_orbitals> (1)
670

>  <i_j_Geometry_convergence_category> (1)
0

>  <r_j_Gas_Phase_Energy> (1)
-630.476234951508

>  <r_j_Final_Energy> (1)
-630.476234951508

>  <r_j_HOMO> (1)
-0.282293638063386

>  <r_j_LUMO> (1)
-0.00403101393803812

>  <r_j_Polarizability> (1)
198.379769968955

>  <r_j_QM_Dipole_(debye)> (1)
0.131213371721968

>  <r_j_QM_Dipole_X_(debye)> (1)
-0.0405993492469597

>  <r_j_QM_Dipole_Y_(debye)> (1)
0.100624565051257

>  <r_j_QM_Dipole_Z_(debye)> (1)
0.0737789852709841

>  <r_j_Lowest_Frequency_(cm-1)> (1)
39.076055782348

>  <r_j_Highest_Frequency_(cm-1)> (1)
3060.4510895635

>  <r_j_2nd_Lowest_Frequency_(cm-1)> (1)
54.8934581725737

>  <i_j_Num_Negative_Frequencies> (1)
0

>  <r_j_Zero_Point_Energy_(kcal/mol)> (1)
296.44159873537

>  <r_j_Entropy_(cal/mol/K)_298.15K_1.00E+00atm> (1)
141.94357485617

>  <r_j_Enthalpy_(kcal/mol)_298.15K_1.00E+00atm> (1)
13.1470809409209

>  <r_j_Free_Energy_(kcal/mol)_298.15K_1.00E+00atm> (1)
-29.1733959024462

>  <r_j_Internal_Energy_(kcal/mol)_298.15K_1.00E+00atm> (1)
12.5545953520936

>  <r_j_Heat_Capacity_(cal/mol/K)_298.15K_1.00E+00atm> (1)
77.7358074126448

>  <r_j_ln(Q)_298.15K_1.00E+00atm> (1)
49.2389966145675

>  <r_j_Total_Internal_Energy_(au)_298.15K_1.00E+00atm> (1)
-629.983818169196

>  <r_j_Total_Enthalpy_(au)_298.15K_1.00E+00atm> (1)
-629.982873983304

>  <r_j_Total_Free_Energy_(au)_298.15K_1.00E+00atm> (1)
-630.05031595648

>  <r_lp_tautomer_probability> (1)
1

>  <r_epik_Ionization_Penalty> (1)
  0.0000

>  <r_epik_Ionization_Penalty_Charging> (1)
  0.0000

>  <r_epik_Ionization_Penalty_Neutral> (1)
  0.0000

>  <r_epik_State_Penalty> (1)
  0.0000

>  <r_epik_Charging_Adjusted_Penalty> (1)
0

>  <i_epik_Tot_Q> (1)
0

>  <i_epik_Tot_abs_Q> (1)
0

>  <s_lp_Force_Field> (1)
S-OPLS

>  <r_lp_Energy> (1)
9.811312

>  <b_lp_Chiralities_Consistent> (1)
1

$$$$
