19801_2-Decenal
                    3D
 Schrodinger Suite 2021-3.
 29 28  0  0  1  0            999 V2000
   -2.7390    2.9524   -0.1868 C   0  0  0  0  0  0
   -2.1816    1.5259   -0.1993 C   0  0  0  0  0  0
   -0.6579    1.4764   -0.0371 C   0  0  0  0  0  0
   -0.0921    0.0520   -0.0430 C   0  0  0  0  0  0
    1.4323    0.0032    0.1110 C   0  0  0  0  0  0
    1.9847   -1.4273    0.1276 C   0  0  0  0  0  0
    3.5281   -1.5184    0.1732 C   0  0  0  0  0  0
    4.1200   -0.9025    1.4042 C   0  0  0  0  0  0
    4.7371   -1.5683    2.3924 C   0  0  0  0  0  0
    5.2572   -0.8701    3.5765 C   0  0  0  0  0  0
    5.8177   -1.4186    4.5076 O   0  0  0  0  0  0
   -3.8273    2.9604   -0.3059 H   0  0  0  0  0  0
   -2.3099    3.5503   -0.9992 H   0  0  0  0  0  0
   -2.5027    3.4596    0.7557 H   0  0  0  0  0  0
   -2.6493    0.9406    0.6041 H   0  0  0  0  0  0
   -2.4609    1.0293   -1.1385 H   0  0  0  0  0  0
   -0.1880    2.0589   -0.8426 H   0  0  0  0  0  0
   -0.3765    1.9760    0.9011 H   0  0  0  0  0  0
   -0.5569   -0.5271    0.7675 H   0  0  0  0  0  0
   -0.3790   -0.4505   -0.9776 H   0  0  0  0  0  0
    1.9001    0.5659   -0.7098 H   0  0  0  0  0  0
    1.7125    0.5232    1.0367 H   0  0  0  0  0  0
    1.5713   -1.9704    0.9871 H   0  0  0  0  0  0
    1.6403   -1.9570   -0.7699 H   0  0  0  0  0  0
    3.8319   -2.5689    0.1038 H   0  0  0  0  0  0
    3.9336   -1.0068   -0.7114 H   0  0  0  0  0  0
    4.0178    0.1795    1.5036 H   0  0  0  0  0  0
    4.8756   -2.6471    2.3620 H   0  0  0  0  0  0
    5.0997    0.2341    3.5718 H   0  0  0  0  0  0
  1  2  1  0  0  0
  1 12  1  0  0  0
  1 13  1  0  0  0
  1 14  1  0  0  0
  2  3  1  0  0  0
  2 15  1  0  0  0
  2 16  1  0  0  0
  3  4  1  0  0  0
  3 17  1  0  0  0
  3 18  1  0  0  0
  4  5  1  0  0  0
  4 19  1  0  0  0
  4 20  1  0  0  0
  5  6  1  0  0  0
  5 21  1  0  0  0
  5 22  1  0  0  0
  6  7  1  0  0  0
  6 23  1  0  0  0
  6 24  1  0  0  0
  7  8  1  0  0  0
  7 25  1  0  0  0
  7 26  1  0  0  0
  8  9  2  0  0  0
  8 27  1  0  0  0
  9 10  1  0  0  0
  9 28  1  0  0  0
 10 11  2  0  0  0
 10 29  1  0  0  0
M  END
>  <i_m_Spin_multiplicity> (1)
1

>  <s_j_Task> (1)
Single Point

>  <s_j_QM_Method> (1)
DFT(b3lyp-d3)

>  <s_j_QM_Basis> (1)
cc-pvtz(-f)

>  <i_j_Number_of_canonical_orbitals> (1)
411

>  <i_j_Geometry_convergence_category> (1)
3

>  <r_j_Gas_Phase_Energy> (1)
-467.298467672333

>  <r_j_Final_Energy> (1)
-467.298467672333

>  <r_j_HOMO> (1)
-0.279157376703501

>  <r_j_LUMO> (1)
-0.0836870734201969

>  <r_j_Polarizability> (1)
128.854622890429

>  <r_j_QM_Dipole_(debye)> (1)
4.33142874706877

>  <r_j_QM_Dipole_X_(debye)> (1)
-2.3678478199651

>  <r_j_QM_Dipole_Y_(debye)> (1)
0.854147386395901

>  <r_j_QM_Dipole_Z_(debye)> (1)
-3.52491190453511

>  <r_j_Lowest_Frequency_(cm-1)> (1)
46.8882757898604

>  <r_j_Highest_Frequency_(cm-1)> (1)
3120.59284564502

>  <r_j_2nd_Lowest_Frequency_(cm-1)> (1)
84.2226698912234

>  <i_j_Num_Negative_Frequencies> (1)
0

>  <r_j_Zero_Point_Energy_(kcal/mol)> (1)
163.518690877541

>  <r_j_Entropy_(cal/mol/K)_298.15K_1.00E+00atm> (1)
110.342512525828

>  <r_j_Enthalpy_(kcal/mol)_298.15K_1.00E+00atm> (1)
8.55479696878631

>  <r_j_Free_Energy_(kcal/mol)_298.15K_1.00E+00atm> (1)
-24.3438231407893

>  <r_j_Internal_Energy_(kcal/mol)_298.15K_1.00E+00atm> (1)
7.96231137995904

>  <r_j_Heat_Capacity_(cal/mol/K)_298.15K_1.00E+00atm> (1)
47.0046577856364

>  <r_j_ln(Q)_298.15K_1.00E+00atm> (1)
41.0876206946633

>  <r_j_Total_Internal_Energy_(au)_298.15K_1.00E+00atm> (1)
-467.025195298838

>  <r_j_Total_Enthalpy_(au)_298.15K_1.00E+00atm> (1)
-467.024251112946

>  <r_j_Total_Free_Energy_(au)_298.15K_1.00E+00atm> (1)
-467.076678401588

>  <r_lp_tautomer_probability> (1)
1

>  <r_epik_Ionization_Penalty> (1)
  0.0000

>  <r_epik_Ionization_Penalty_Charging> (1)
  0.0000

>  <r_epik_Ionization_Penalty_Neutral> (1)
  0.0000

>  <r_epik_State_Penalty> (1)
  0.0000

>  <r_epik_Charging_Adjusted_Penalty> (1)
0

>  <i_epik_Tot_Q> (1)
0

>  <i_epik_Tot_abs_Q> (1)
0

>  <s_lp_Force_Field> (1)
S-OPLS

>  <r_lp_Energy> (1)
-0.023009

>  <b_lp_Chiralities_Consistent> (1)
1

$$$$
