19844_methyl vanillate
                    3D
 Schrodinger Suite 2021-3.
 22 22  0  0  1  0            999 V2000
   -0.7026    1.2202    0.0000 C   0  0  0  0  0  0
   -0.0079    0.0014    0.0000 O   0  0  0  0  0  0
    1.3765    0.0659    0.0000 C   0  0  0  0  0  0
    2.0168   -1.2597    0.0000 C   0  0  0  0  0  0
    3.4644   -1.2034    0.0000 C   0  0  0  0  0  0
    4.1781   -0.0255    0.0000 C   0  0  0  0  0  0
    3.5241    1.2280    0.0000 C   0  0  0  0  0  0
    2.0970    1.2344    0.0000 C   0  0  0  0  0  0
    4.2166    2.4915    0.0000 C   0  0  0  0  0  0
    3.7195    3.6189    0.0000 O   0  0  0  0  0  0
    5.6038    2.3538    0.0000 O   0  0  0  0  0  0
    6.3108    3.5828    0.0000 C   0  0  0  0  0  0
    1.3623   -2.3279   -0.0001 O   0  5  0  0  0  0
   -1.7695    0.9738    0.0000 H   0  0  0  0  0  0
   -0.4790    1.8325   -0.8893 H   0  0  0  0  0  0
   -0.4790    1.8325    0.8893 H   0  0  0  0  0  0
    3.9729   -2.1652    0.0000 H   0  0  0  0  0  0
    5.2646   -0.0478    0.0001 H   0  0  0  0  0  0
    1.6130    2.2051    0.0000 H   0  0  0  0  0  0
    7.3731    3.3217    0.0000 H   0  0  0  0  0  0
    6.0748    4.1877    0.8838 H   0  0  0  0  0  0
    6.0749    4.1876   -0.8839 H   0  0  0  0  0  0
  1  2  1  0  0  0
  1 14  1  0  0  0
  1 15  1  0  0  0
  1 16  1  0  0  0
  2  3  1  0  0  0
  3  8  1  0  0  0
  3  4  2  0  0  0
  4  5  1  0  0  0
  4 13  1  0  0  0
  5  6  2  0  0  0
  5 17  1  0  0  0
  6  7  1  0  0  0
  6 18  1  0  0  0
  7  8  2  0  0  0
  7  9  1  0  0  0
  8 19  1  0  0  0
  9 10  2  0  0  0
  9 11  1  0  0  0
 11 12  1  0  0  0
 12 20  1  0  0  0
 12 21  1  0  0  0
 12 22  1  0  0  0
M  CHG  1  13  -1
M  END
> <i_m_Spin_multiplicity>
1

> <s_j_Task>
Single Point

> <s_j_QM_Method>
DFT(b3lyp-d3)

> <s_j_QM_Basis>
cc-pvtz(-f)

> <i_j_Number_of_canonical_orbitals>
375

> <i_j_Geometry_convergence_category>
0

> <r_j_Gas_Phase_Energy>
-649.557609276193

> <r_j_Final_Energy>
-649.557609276193

> <r_j_HOMO>
-0.0290921802927079

> <r_j_LUMO>
0.121707021851598

> <r_j_Polarizability>
137.270066969102

> <r_j_QM_Dipole_(debye)>
5.39443087099289

> <r_j_QM_Dipole_X_(debye)>
2.21024791058226

> <r_j_QM_Dipole_Y_(debye)>
4.92084226168848

> <r_j_QM_Dipole_Z_(debye)>
0.000176829231212545

> <r_j_Lowest_Frequency_(cm-1)>
76.4366965256064

> <r_j_Highest_Frequency_(cm-1)>
3148.32982423093

> <r_j_2nd_Lowest_Frequency_(cm-1)>
98.3092558451652

> <i_j_Num_Negative_Frequencies>
0

> <r_j_Zero_Point_Energy_(kcal/mol)>
104.053722362223

> <r_j_Entropy_(cal/mol/K)_298.15K_1.00E+00atm>
105.718216076286

> <r_j_Enthalpy_(kcal/mol)_298.15K_1.00E+00atm>
7.93764788538495

> <r_j_Free_Energy_(kcal/mol)_298.15K_1.00E+00atm>
-23.5822382377598

> <r_j_Internal_Energy_(kcal/mol)_298.15K_1.00E+00atm>
7.34516229655768

> <r_j_Heat_Capacity_(cal/mol/K)_298.15K_1.00E+00atm>
44.0928340936971

> <r_j_ln(Q)_298.15K_1.00E+00atm>
39.8022140663994

> <r_j_Total_Internal_Energy_(au)_298.15K_1.00E+00atm>
-649.380083852299

> <r_j_Total_Enthalpy_(au)_298.15K_1.00E+00atm>
-649.379139666407

> <r_j_Total_Free_Energy_(au)_298.15K_1.00E+00atm>
-649.429369802573

> <r_epik_Ionization_Penalty>
  1.8090

> <r_epik_Ionization_Penalty_Charging>
  1.8090

> <r_epik_Ionization_Penalty_Neutral>
  0.0000

> <r_epik_State_Penalty>
  1.9233

> <r_epik_Charging_Adjusted_Penalty>
3.73229

> <i_epik_Tot_Q>
-1

> <i_epik_Tot_abs_Q>
1

> <s_lp_Force_Field>
S-OPLS

> <r_lp_Energy>
18.3403

> <b_lp_Chiralities_Consistent>
1

> <s_epik_Chemistry_Notes>
This compound has an ester and may undergo hydrolysis at high or low pH.

$$$$
