19944_2,3,6-Trimethylheptane
                    3D
 Schrodinger Suite 2021-3.
 32 31  0  0  1  0            999 V2000
   -2.8510    0.6615   -1.0363 C   0  0  0  0  0  0
   -2.0834    1.4930    0.0021 C   0  0  0  0  0  0
   -2.5868    2.9431    0.0102 C   0  0  0  0  0  0
   -0.5609    1.4519   -0.2300 C   0  0  0  0  0  0
    0.0486    0.0427   -0.1764 C   0  0  0  0  0  0
    1.5871    0.0021   -0.0503 C   0  0  0  0  0  0
    2.2503    0.8105   -1.1785 C   0  0  0  0  0  0
    2.1211   -1.4570    0.0016 C   0  0  0  0  0  0
    1.4699   -2.2823    1.1251 C   0  0  0  0  0  0
    3.6507   -1.5122    0.1598 C   0  0  0  0  0  0
   -2.6445    1.0252   -2.0508 H   0  0  0  0  0  0
   -3.9320    0.7292   -0.8726 H   0  0  0  0  0  0
   -2.5758   -0.3967   -0.9987 H   0  0  0  0  0  0
   -2.2806    1.0595    0.9946 H   0  0  0  0  0  0
   -2.4188    3.4173   -0.9649 H   0  0  0  0  0  0
   -2.0672    3.5431    0.7655 H   0  0  0  0  0  0
   -3.6606    2.9915    0.2215 H   0  0  0  0  0  0
   -0.3467    1.9233   -1.1984 H   0  0  0  0  0  0
   -0.0740    2.0806    0.5294 H   0  0  0  0  0  0
   -0.3969   -0.4819    0.6764 H   0  0  0  0  0  0
   -0.2436   -0.5243   -1.0712 H   0  0  0  0  0  0
    1.8535    0.4783    0.9077 H   0  0  0  0  0  0
    2.0307    0.3617   -2.1556 H   0  0  0  0  0  0
    3.3361    0.8566   -1.0675 H   0  0  0  0  0  0
    1.8880    1.8414   -1.1980 H   0  0  0  0  0  0
    1.8642   -1.9313   -0.9588 H   0  0  0  0  0  0
    1.6156   -1.7957    2.0978 H   0  0  0  0  0  0
    1.9211   -3.2783    1.1838 H   0  0  0  0  0  0
    0.3960   -2.4205    0.9777 H   0  0  0  0  0  0
    3.9669   -0.9749    1.0628 H   0  0  0  0  0  0
    4.1773   -1.0746   -0.6918 H   0  0  0  0  0  0
    3.9921   -2.5482    0.2561 H   0  0  0  0  0  0
  1  2  1  0  0  0
  1 11  1  0  0  0
  1 12  1  0  0  0
  1 13  1  0  0  0
  2  3  1  0  0  0
  2  4  1  0  0  0
  2 14  1  0  0  0
  3 15  1  0  0  0
  3 16  1  0  0  0
  3 17  1  0  0  0
  4  5  1  0  0  0
  4 18  1  0  0  0
  4 19  1  0  0  0
  5  6  1  0  0  0
  5 20  1  0  0  0
  5 21  1  0  0  0
  6  7  1  0  0  0
  6  8  1  0  0  0
  6 22  1  0  0  0
  7 23  1  0  0  0
  7 24  1  0  0  0
  7 25  1  0  0  0
  8  9  1  0  0  0
  8 10  1  0  0  0
  8 26  1  0  0  0
  9 27  1  0  0  0
  9 28  1  0  0  0
  9 29  1  0  0  0
 10 30  1  0  0  0
 10 31  1  0  0  0
 10 32  1  0  0  0
M  END
>  <i_m_Spin_multiplicity> (1)
1

>  <s_j_Task> (1)
Single Point

>  <s_j_QM_Method> (1)
DFT(b3lyp-d3)

>  <s_j_QM_Basis> (1)
cc-pvtz(-f)

>  <i_j_Number_of_canonical_orbitals> (1)
425

>  <i_j_Geometry_convergence_category> (1)
3

>  <r_j_Gas_Phase_Energy> (1)
-394.498614078467

>  <r_j_Final_Energy> (1)
-394.498614078467

>  <r_j_HOMO> (1)
-0.29577219446665

>  <r_j_LUMO> (1)
0.0250751933392649

>  <r_j_Polarizability> (1)
123.209114359513

>  <r_j_QM_Dipole_(debye)> (1)
0.0952875636333455

>  <r_j_QM_Dipole_X_(debye)> (1)
-0.0274533848230726

>  <r_j_QM_Dipole_Y_(debye)> (1)
-0.060909642781692

>  <r_j_QM_Dipole_Z_(debye)> (1)
0.0679414958706521

>  <r_j_Lowest_Frequency_(cm-1)> (1)
77.1098218523514

>  <r_j_Highest_Frequency_(cm-1)> (1)
3073.96584106895

>  <r_j_2nd_Lowest_Frequency_(cm-1)> (1)
79.989302121285

>  <i_j_Num_Negative_Frequencies> (1)
0

>  <r_j_Zero_Point_Energy_(kcal/mol)> (1)
189.306358549756

>  <r_j_Entropy_(cal/mol/K)_298.15K_1.00E+00atm> (1)
107.151895356516

>  <r_j_Enthalpy_(kcal/mol)_298.15K_1.00E+00atm> (1)
8.51014685665984

>  <r_j_Free_Energy_(kcal/mol)_298.15K_1.00E+00atm> (1)
-23.4371907438854

>  <r_j_Internal_Energy_(kcal/mol)_298.15K_1.00E+00atm> (1)
7.91766126783257

>  <r_j_Heat_Capacity_(cal/mol/K)_298.15K_1.00E+00atm> (1)
49.1699121855461

>  <r_j_ln(Q)_298.15K_1.00E+00atm> (1)
39.5574022150908

>  <r_j_Total_Internal_Energy_(au)_298.15K_1.00E+00atm> (1)
-394.184317594913

>  <r_j_Total_Enthalpy_(au)_298.15K_1.00E+00atm> (1)
-394.183373409021

>  <r_j_Total_Free_Energy_(au)_298.15K_1.00E+00atm> (1)
-394.234284732479

>  <r_lp_tautomer_probability> (1)
1

>  <r_epik_Ionization_Penalty> (1)
  0.0000

>  <r_epik_Ionization_Penalty_Charging> (1)
  0.0000

>  <r_epik_Ionization_Penalty_Neutral> (1)
  0.0000

>  <r_epik_State_Penalty> (1)
  0.0000

>  <r_epik_Charging_Adjusted_Penalty> (1)
0

>  <i_epik_Tot_Q> (1)
0

>  <i_epik_Tot_abs_Q> (1)
0

>  <s_lp_Force_Field> (1)
S-OPLS

>  <r_lp_Energy> (1)
7.51148

>  <b_lp_Chiralities_Consistent> (1)
1

$$$$
