19951_3-Ethyl-1-pentene
                    3D
 Schrodinger Suite 2021-3.
 21 20  0  0  1  0            999 V2000
   -0.6281    1.4463   -0.0775 C   0  0  0  0  0  0
   -0.0245    0.0441    0.0369 C   0  0  0  0  0  0
    1.5207    0.0289    0.0646 C   0  0  0  0  0  0
    2.0497   -1.4229    0.0370 C   0  0  0  0  0  0
    3.5729   -1.5248   -0.0775 C   0  0  0  0  0  0
    2.0426    0.7670    1.2708 C   0  0  0  0  0  0
    2.8114    1.8557    1.2515 C   0  0  0  0  0  0
   -1.7216    1.4055   -0.1033 H   0  0  0  0  0  0
   -0.2896    1.9441   -0.9934 H   0  0  0  0  0  0
   -0.3299    2.0764    0.7659 H   0  0  0  0  0  0
   -0.3993   -0.4490    0.9449 H   0  0  0  0  0  0
   -0.3639   -0.5720   -0.8059 H   0  0  0  0  0  0
    1.8836    0.5420   -0.8388 H   0  0  0  0  0  0
    1.7099   -1.9404    0.9453 H   0  0  0  0  0  0
    1.5817   -1.9485   -0.8055 H   0  0  0  0  0  0
    3.8989   -2.5694   -0.1028 H   0  0  0  0  0  0
    4.0678   -1.0332    0.7655 H   0  0  0  0  0  0
    3.9293   -1.0402   -0.9938 H   0  0  0  0  0  0
    1.7444    0.3442    2.2332 H   0  0  0  0  0  0
    3.1308    2.3085    0.3159 H   0  0  0  0  0  0
    3.1501    2.3349    2.1654 H   0  0  0  0  0  0
  1  2  1  0  0  0
  1  8  1  0  0  0
  1  9  1  0  0  0
  1 10  1  0  0  0
  2  3  1  0  0  0
  2 11  1  0  0  0
  2 12  1  0  0  0
  3  4  1  0  0  0
  3  6  1  0  0  0
  3 13  1  0  0  0
  4  5  1  0  0  0
  4 14  1  0  0  0
  4 15  1  0  0  0
  5 16  1  0  0  0
  5 17  1  0  0  0
  5 18  1  0  0  0
  6  7  2  0  0  0
  6 19  1  0  0  0
  7 20  1  0  0  0
  7 21  1  0  0  0
M  END
>  <i_m_Spin_multiplicity> (1)
1

>  <s_j_Task> (1)
Single Point

>  <s_j_QM_Method> (1)
DFT(b3lyp-d3)

>  <s_j_QM_Basis> (1)
cc-pvtz(-f)

>  <i_j_Number_of_canonical_orbitals> (1)
285

>  <i_j_Geometry_convergence_category> (1)
3

>  <r_j_Gas_Phase_Energy> (1)
-275.274745211587

>  <r_j_Final_Energy> (1)
-275.274745211587

>  <r_j_HOMO> (1)
-0.260475895125014

>  <r_j_LUMO> (1)
0.00599671284159586

>  <r_j_Polarizability> (1)
85.5354968189218

>  <r_j_QM_Dipole_(debye)> (1)
0.325257644255241

>  <r_j_QM_Dipole_X_(debye)> (1)
-0.178261982015713

>  <r_j_QM_Dipole_Y_(debye)> (1)
-0.251947149571403

>  <r_j_QM_Dipole_Z_(debye)> (1)
-0.102653956266399

>  <r_j_Lowest_Frequency_(cm-1)> (1)
121.923186390256

>  <r_j_Highest_Frequency_(cm-1)> (1)
3168.55034096616

>  <r_j_2nd_Lowest_Frequency_(cm-1)> (1)
122.137421202024

>  <i_j_Num_Negative_Frequencies> (1)
0

>  <r_j_Zero_Point_Energy_(kcal/mol)> (1)
121.226545158448

>  <r_j_Entropy_(cal/mol/K)_298.15K_1.00E+00atm> (1)
88.4941396566176

>  <r_j_Enthalpy_(kcal/mol)_298.15K_1.00E+00atm> (1)
6.00336659186422

>  <r_j_Free_Energy_(kcal/mol)_298.15K_1.00E+00atm> (1)
-20.3811611467563

>  <r_j_Internal_Energy_(kcal/mol)_298.15K_1.00E+00atm> (1)
5.41088100303695

>  <r_j_Heat_Capacity_(cal/mol/K)_298.15K_1.00E+00atm> (1)
32.2348648021973

>  <r_j_ln(Q)_298.15K_1.00E+00atm> (1)
34.3994208991604

>  <r_j_Total_Internal_Energy_(au)_298.15K_1.00E+00atm> (1)
-275.07293562589

>  <r_j_Total_Enthalpy_(au)_298.15K_1.00E+00atm> (1)
-275.071991439998

>  <r_j_Total_Free_Energy_(au)_298.15K_1.00E+00atm> (1)
-275.114037861606

>  <r_lp_tautomer_probability> (1)
1

>  <r_epik_Ionization_Penalty> (1)
  0.0000

>  <r_epik_Ionization_Penalty_Charging> (1)
  0.0000

>  <r_epik_Ionization_Penalty_Neutral> (1)
  0.0000

>  <r_epik_State_Penalty> (1)
  0.0000

>  <r_epik_Charging_Adjusted_Penalty> (1)
0

>  <i_epik_Tot_Q> (1)
0

>  <i_epik_Tot_abs_Q> (1)
0

>  <s_lp_Force_Field> (1)
S-OPLS

>  <r_lp_Energy> (1)
0.67325

>  <b_lp_Chiralities_Consistent> (1)
1

$$$$
