19966_2-hexene
                    3D
 Schrodinger Suite 2021-3.
 18 17  0  0  1  0            999 V2000
   -0.5572    1.5544    0.0800 C   0  0  0  0  0  0
   -0.1212    0.0887    0.0035 C   0  0  0  0  0  0
    1.4083   -0.0751   -0.0806 C   0  0  0  0  0  0
    1.8393   -1.5152   -0.1027 C   0  0  0  0  0  0
    2.4852   -2.1157   -1.1048 C   0  0  0  0  0  0
    2.8951   -3.5603   -1.1315 C   0  0  0  0  0  0
   -1.6467    1.6471    0.1356 H   0  0  0  0  0  0
   -0.2193    2.1128   -0.8006 H   0  0  0  0  0  0
   -0.1344    2.0461    0.9639 H   0  0  0  0  0  0
   -0.4939   -0.4547    0.8822 H   0  0  0  0  0  0
   -0.5776   -0.3943   -0.8695 H   0  0  0  0  0  0
    1.7824    0.4428   -0.9735 H   0  0  0  0  0  0
    1.8604    0.4330    0.7848 H   0  0  0  0  0  0
    1.5739   -2.1038    0.7782 H   0  0  0  0  0  0
    2.7456   -1.5265   -1.9860 H   0  0  0  0  0  0
    2.4443   -4.0855   -1.9836 H   0  0  0  0  0  0
    2.5955   -4.0817   -0.2168 H   0  0  0  0  0  0
    3.9824   -3.6647   -1.2403 H   0  0  0  0  0  0
  1  2  1  0  0  0
  1  7  1  0  0  0
  1  8  1  0  0  0
  1  9  1  0  0  0
  2  3  1  0  0  0
  2 10  1  0  0  0
  2 11  1  0  0  0
  3  4  1  0  0  0
  3 12  1  0  0  0
  3 13  1  0  0  0
  4  5  2  0  0  0
  4 14  1  0  0  0
  5  6  1  0  0  0
  5 15  1  0  0  0
  6 16  1  0  0  0
  6 17  1  0  0  0
  6 18  1  0  0  0
M  END
>  <i_m_Spin_multiplicity> (1)
1

>  <s_j_Task> (1)
Single Point

>  <s_j_QM_Method> (1)
DFT(b3lyp-d3)

>  <s_j_QM_Basis> (1)
cc-pvtz(-f)

>  <i_j_Number_of_canonical_orbitals> (1)
244

>  <i_j_Geometry_convergence_category> (1)
0

>  <r_j_Gas_Phase_Energy> (1)
-235.948298881583

>  <r_j_Final_Energy> (1)
-235.948298881583

>  <r_j_HOMO> (1)
-0.250328695269292

>  <r_j_LUMO> (1)
0.0115710732130491

>  <r_j_Polarizability> (1)
76.0742550641697

>  <r_j_QM_Dipole_(debye)> (1)
0.0757997222933151

>  <r_j_QM_Dipole_X_(debye)> (1)
-0.0411281134749686

>  <r_j_QM_Dipole_Y_(debye)> (1)
-0.0541614009342259

>  <r_j_QM_Dipole_Z_(debye)> (1)
-0.0334756453347181

>  <r_j_Lowest_Frequency_(cm-1)> (1)
106.402207995514

>  <r_j_Highest_Frequency_(cm-1)> (1)
3075.99086838591

>  <r_j_2nd_Lowest_Frequency_(cm-1)> (1)
135.647602545312

>  <i_j_Num_Negative_Frequencies> (1)
0

>  <r_j_Zero_Point_Energy_(kcal/mol)> (1)
103.289736549584

>  <r_j_Entropy_(cal/mol/K)_298.15K_1.00E+00atm> (1)
83.4059324277641

>  <r_j_Enthalpy_(kcal/mol)_298.15K_1.00E+00atm> (1)
5.34666115860327

>  <r_j_Free_Energy_(kcal/mol)_298.15K_1.00E+00atm> (1)
-19.5208175947346

>  <r_j_Internal_Energy_(kcal/mol)_298.15K_1.00E+00atm> (1)
4.754175569776

>  <r_j_Heat_Capacity_(cal/mol/K)_298.15K_1.00E+00atm> (1)
27.3212080631972

>  <r_j_ln(Q)_298.15K_1.00E+00atm> (1)
32.9473289525451

>  <r_j_Total_Internal_Energy_(au)_298.15K_1.00E+00atm> (1)
-235.776119946787

>  <r_j_Total_Enthalpy_(au)_298.15K_1.00E+00atm> (1)
-235.775175760895

>  <r_j_Total_Free_Energy_(au)_298.15K_1.00E+00atm> (1)
-235.814804611043

>  <r_lp_tautomer_probability> (1)
1

>  <r_epik_Ionization_Penalty> (1)
  0.0000

>  <r_epik_Ionization_Penalty_Charging> (1)
  0.0000

>  <r_epik_Ionization_Penalty_Neutral> (1)
  0.0000

>  <r_epik_State_Penalty> (1)
  0.0000

>  <r_epik_Charging_Adjusted_Penalty> (1)
0

>  <i_epik_Tot_Q> (1)
0

>  <i_epik_Tot_abs_Q> (1)
0

>  <s_lp_Force_Field> (1)
S-OPLS

>  <r_lp_Energy> (1)
-3.249824

>  <b_lp_Chiralities_Consistent> (1)
1

$$$$
