20129_Propylene glycol phenyl ether
                    3D
 Schrodinger Suite 2021-3.
 23 23  0  0  1  0            999 V2000
    0.0694    0.1267    0.1631 O   0  0  0  0  0  0
   -0.5050    1.3598    0.0509 C   0  0  0  0  0  0
   -1.9071    1.3658    0.0822 C   0  0  0  0  0  0
   -2.6034    2.5628   -0.0305 C   0  0  0  0  0  0
   -1.9180    3.7733   -0.1750 C   0  0  0  0  0  0
   -0.5260    3.7636   -0.2039 C   0  0  0  0  0  0
    0.1894    2.5682   -0.0898 C   0  0  0  0  0  0
    1.4951   -0.0145    0.1363 C   0  0  0  0  0  0
    1.7648   -1.4471   -0.2992 C   0  0  0  0  0  0
    1.4350   -1.5645   -1.6742 O   0  0  0  0  0  0
    2.0868    0.2901    1.5123 C   0  0  0  0  0  0
   -2.4219    0.4166    0.1888 H   0  0  0  0  0  0
   -3.6896    2.5516   -0.0075 H   0  0  0  0  0  0
   -2.4637    4.7077   -0.2625 H   0  0  0  0  0  0
    0.0220    4.6953   -0.3144 H   0  0  0  0  0  0
    1.2720    2.5929   -0.1129 H   0  0  0  0  0  0
    1.9200    0.6455   -0.6311 H   0  0  0  0  0  0
    2.8275   -1.6763   -0.1147 H   0  0  0  0  0  0
    1.1601   -2.1154    0.3328 H   0  0  0  0  0  0
    1.3932   -2.5020   -1.8974 H   0  0  0  0  0  0
    3.1798    0.2343    1.4896 H   0  0  0  0  0  0
    1.7134   -0.4274    2.2498 H   0  0  0  0  0  0
    1.7995    1.2909    1.8421 H   0  0  0  0  0  0
  1  2  1  0  0  0
  1  8  1  0  0  0
  2  7  1  0  0  0
  2  3  2  0  0  0
  3  4  1  0  0  0
  3 12  1  0  0  0
  4  5  2  0  0  0
  4 13  1  0  0  0
  5  6  1  0  0  0
  5 14  1  0  0  0
  6  7  2  0  0  0
  6 15  1  0  0  0
  7 16  1  0  0  0
  8  9  1  0  0  0
  8 11  1  0  0  0
  8 17  1  0  0  0
  9 10  1  0  0  0
  9 18  1  0  0  0
  9 19  1  0  0  0
 10 20  1  0  0  0
 11 21  1  0  0  0
 11 22  1  0  0  0
 11 23  1  0  0  0
M  END
>  <i_m_Spin_multiplicity> (1)
1

>  <s_j_Task> (1)
Single Point

>  <s_j_QM_Method> (1)
DFT(b3lyp-d3)

>  <s_j_QM_Basis> (1)
cc-pvtz(-f)

>  <i_j_Number_of_canonical_orbitals> (1)
355

>  <i_j_Geometry_convergence_category> (1)
1

>  <r_j_Gas_Phase_Energy> (1)
-500.802331701239

>  <r_j_Final_Energy> (1)
-500.802331701239

>  <r_j_HOMO> (1)
-0.20904693262641

>  <r_j_LUMO> (1)
0.003480447272216

>  <r_j_Polarizability> (1)
111.314345527238

>  <r_j_QM_Dipole_(debye)> (1)
2.20552215682202

>  <r_j_QM_Dipole_X_(debye)> (1)
1.55520597093886

>  <r_j_QM_Dipole_Y_(debye)> (1)
-1.33043376437548

>  <r_j_QM_Dipole_Z_(debye)> (1)
0.821953995548816

>  <r_j_Lowest_Frequency_(cm-1)> (1)
63.0101746555918

>  <r_j_Highest_Frequency_(cm-1)> (1)
3785.73905132506

>  <r_j_2nd_Lowest_Frequency_(cm-1)> (1)
89.5398113053791

>  <i_j_Num_Negative_Frequencies> (1)
0

>  <r_j_Zero_Point_Energy_(kcal/mol)> (1)
121.421340696622

>  <r_j_Entropy_(cal/mol/K)_298.15K_1.00E+00atm> (1)
97.9896711164674

>  <r_j_Enthalpy_(kcal/mol)_298.15K_1.00E+00atm> (1)
7.01335481553068

>  <r_j_Free_Energy_(kcal/mol)_298.15K_1.00E+00atm> (1)
-22.2022656278441

>  <r_j_Internal_Energy_(kcal/mol)_298.15K_1.00E+00atm> (1)
6.4208692267034

>  <r_j_Heat_Capacity_(cal/mol/K)_298.15K_1.00E+00atm> (1)
40.0111287316605

>  <r_j_ln(Q)_298.15K_1.00E+00atm> (1)
37.4730897198525

>  <r_j_Total_Internal_Energy_(au)_298.15K_1.00E+00atm> (1)
-500.598602170395

>  <r_j_Total_Enthalpy_(au)_298.15K_1.00E+00atm> (1)
-500.597657984502

>  <r_j_Total_Free_Energy_(au)_298.15K_1.00E+00atm> (1)
-500.644216039544

>  <r_lp_tautomer_probability> (1)
1

>  <r_epik_Ionization_Penalty> (1)
  0.0000

>  <r_epik_Ionization_Penalty_Charging> (1)
  0.0000

>  <r_epik_Ionization_Penalty_Neutral> (1)
  0.0000

>  <r_epik_State_Penalty> (1)
  0.0000

>  <r_epik_Charging_Adjusted_Penalty> (1)
0

>  <i_epik_Tot_Q> (1)
0

>  <i_epik_Tot_abs_Q> (1)
0

>  <s_lp_Force_Field> (1)
S-OPLS

>  <r_lp_Energy> (1)
12.5307

>  <b_lp_Chiralities_Consistent> (1)
1

$$$$
