20149_Tetracontane
                    3D
 Schrodinger Suite 2021-3.
122121  0  0  1  0            999 V2000
  -21.0002    2.6119    2.1853 C   0  0  0  0  0  0
  -20.2349    2.2216    0.9174 C   0  0  0  0  0  0
  -18.7891    1.7912    1.1940 C   0  0  0  0  0  0
  -18.0215    1.3991   -0.0734 C   0  0  0  0  0  0
  -16.5724    0.9724    0.1887 C   0  0  0  0  0  0
  -15.8174    0.5917   -1.0900 C   0  0  0  0  0  0
  -14.3613    0.1765   -0.8488 C   0  0  0  0  0  0
  -13.6236   -0.1860   -2.1449 C   0  0  0  0  0  0
  -12.1331   -0.5106   -1.9636 C   0  0  0  0  0  0
  -11.8555   -1.7887   -1.1569 C   0  0  0  0  0  0
  -10.3727   -2.1933   -1.1232 C   0  0  0  0  0  0
   -9.4675   -1.2247   -0.3500 C   0  0  0  0  0  0
   -7.9898   -1.6334   -0.3712 C   0  0  0  0  0  0
   -7.0854   -0.6903    0.4310 C   0  0  0  0  0  0
   -5.5941   -1.0249    0.3089 C   0  0  0  0  0  0
   -4.6991   -0.1025    1.1472 C   0  0  0  0  0  0
   -3.1932   -0.3784    1.0097 C   0  0  0  0  0  0
   -2.6255   -0.0565   -0.3820 C   0  0  0  0  0  0
   -1.0940   -0.1341   -0.4726 C   0  0  0  0  0  0
   -0.5088   -1.5447   -0.3169 C   0  0  0  0  0  0
    1.0187   -1.5619   -0.4459 C   0  0  0  0  0  0
    1.6472   -2.9569   -0.3406 C   0  0  0  0  0  0
    3.1777   -2.9164   -0.4222 C   0  0  0  0  0  0
    3.8572   -4.2899   -0.3602 C   0  0  0  0  0  0
    5.3867   -4.1821   -0.3804 C   0  0  0  0  0  0
    6.1256   -5.5257   -0.3515 C   0  0  0  0  0  0
    7.6480   -5.3484   -0.2980 C   0  0  0  0  0  0
    8.4471   -6.6573   -0.2925 C   0  0  0  0  0  0
    9.9554   -6.4161   -0.1527 C   0  0  0  0  0  0
   10.8105   -7.6890   -0.1636 C   0  0  0  0  0  0
   12.2970   -7.3960    0.0758 C   0  0  0  0  0  0
   13.2000   -8.6352    0.0533 C   0  0  0  0  0  0
   14.6579   -8.3024    0.4014 C   0  0  0  0  0  0
   15.6095   -9.5081    0.4327 C   0  0  0  0  0  0
   15.9002  -10.1284   -0.9411 C   0  0  0  0  0  0
   16.9247  -11.2699   -0.8701 C   0  0  0  0  0  0
   17.3710  -11.8163   -2.2348 C   0  0  0  0  0  0
   16.2643  -12.4998   -3.0483 C   0  0  0  0  0  0
   16.7745  -13.1020   -4.3636 C   0  0  0  0  0  0
   15.6742  -13.7859   -5.1802 C   0  0  0  0  0  0
  -22.0277    2.9153    1.9585 H   0  0  0  0  0  0
  -20.5113    3.4477    2.6991 H   0  0  0  0  0  0
  -21.0475    1.7743    2.8908 H   0  0  0  0  0  0
  -20.7626    1.4051    0.4055 H   0  0  0  0  0  0
  -20.2313    3.0665    0.2151 H   0  0  0  0  0  0
  -18.2585    2.6082    1.7041 H   0  0  0  0  0  0
  -18.7897    0.9459    1.8973 H   0  0  0  0  0  0
  -18.5537    0.5818   -0.5813 H   0  0  0  0  0  0
  -18.0277    2.2448   -0.7762 H   0  0  0  0  0  0
  -16.0389    1.7881    0.6975 H   0  0  0  0  0  0
  -16.5620    0.1226    0.8864 H   0  0  0  0  0  0
  -16.3492   -0.2278   -1.5948 H   0  0  0  0  0  0
  -15.8402    1.4405   -1.7888 H   0  0  0  0  0  0
  -13.8270    0.9957   -0.3459 H   0  0  0  0  0  0
  -14.3394   -0.6726   -0.1531 H   0  0  0  0  0  0
  -14.1267   -1.0401   -2.6212 H   0  0  0  0  0  0
  -13.7198    0.6521   -2.8487 H   0  0  0  0  0  0
  -11.6697   -0.6165   -2.9545 H   0  0  0  0  0  0
  -11.6391    0.3471   -1.4882 H   0  0  0  0  0  0
  -12.2190   -1.6695   -0.1275 H   0  0  0  0  0  0
  -12.4399   -2.6109   -1.5926 H   0  0  0  0  0  0
  -10.2821   -3.1924   -0.6756 H   0  0  0  0  0  0
  -10.0026   -2.2889   -2.1544 H   0  0  0  0  0  0
   -9.5581   -0.2131   -0.7666 H   0  0  0  0  0  0
   -9.8166   -1.1569    0.6907 H   0  0  0  0  0  0
   -7.8843   -2.6566    0.0172 H   0  0  0  0  0  0
   -7.6429   -1.6691   -1.4140 H   0  0  0  0  0  0
   -7.2489    0.3435    0.0935 H   0  0  0  0  0  0
   -7.3831   -0.7126    1.4892 H   0  0  0  0  0  0
   -5.4236   -2.0677    0.6137 H   0  0  0  0  0  0
   -5.3057   -0.9673   -0.7488 H   0  0  0  0  0  0
   -4.8985    0.9433    0.8712 H   0  0  0  0  0  0
   -4.9876   -0.1966    2.2030 H   0  0  0  0  0  0
   -2.6524    0.2222    1.7543 H   0  0  0  0  0  0
   -2.9942   -1.4282    1.2634 H   0  0  0  0  0  0
   -3.0626   -0.7297   -1.1313 H   0  0  0  0  0  0
   -2.9453    0.9571   -0.6616 H   0  0  0  0  0  0
   -0.7747    0.2708   -1.4428 H   0  0  0  0  0  0
   -0.6536    0.5257    0.2891 H   0  0  0  0  0  0
   -0.7920   -1.9658    0.6568 H   0  0  0  0  0  0
   -0.9506   -2.2064   -1.0761 H   0  0  0  0  0  0
    1.3054   -1.1115   -1.4074 H   0  0  0  0  0  0
    1.4507   -0.9125    0.3294 H   0  0  0  0  0  0
    1.3442   -3.4268    0.6061 H   0  0  0  0  0  0
    1.2510   -3.5990   -1.1401 H   0  0  0  0  0  0
    3.4757   -2.4114   -1.3526 H   0  0  0  0  0  0
    3.5617   -2.2886    0.3949 H   0  0  0  0  0  0
    3.5402   -4.8172    0.5509 H   0  0  0  0  0  0
    3.5177   -4.9073   -1.2041 H   0  0  0  0  0  0
    5.6968   -3.6224   -1.2748 H   0  0  0  0  0  0
    5.7115   -3.5765    0.4782 H   0  0  0  0  0  0
    5.7954   -6.1091    0.5199 H   0  0  0  0  0  0
    5.8512   -6.1170   -1.2367 H   0  0  0  0  0  0
    7.9701   -4.7358   -1.1525 H   0  0  0  0  0  0
    7.9061   -4.7681    0.5998 H   0  0  0  0  0  0
    8.1025   -7.2954    0.5339 H   0  0  0  0  0  0
    8.2442   -7.2179   -1.2160 H   0  0  0  0  0  0
   10.2917   -5.7510   -0.9613 H   0  0  0  0  0  0
   10.1416   -5.8680    0.7823 H   0  0  0  0  0  0
   10.4481   -8.3814    0.6098 H   0  0  0  0  0  0
   10.6841   -8.2104   -1.1230 H   0  0  0  0  0  0
   12.6515   -6.6792   -0.6790 H   0  0  0  0  0  0
   12.4070   -6.8890    1.0454 H   0  0  0  0  0  0
   12.8206   -9.3787    0.7693 H   0  0  0  0  0  0
   13.1430   -9.1076   -0.9363 H   0  0  0  0  0  0
   15.0413   -7.5598   -0.3135 H   0  0  0  0  0  0
   14.6755   -7.8113    1.3839 H   0  0  0  0  0  0
   16.5621   -9.1938    0.8806 H   0  0  0  0  0  0
   15.2007  -10.2788    1.1023 H   0  0  0  0  0  0
   14.9682  -10.4935   -1.3890 H   0  0  0  0  0  0
   16.2779   -9.3457   -1.6157 H   0  0  0  0  0  0
   17.8114  -10.9124   -0.3286 H   0  0  0  0  0  0
   16.5118  -12.0905   -0.2658 H   0  0  0  0  0  0
   17.8003  -10.9962   -2.8286 H   0  0  0  0  0  0
   18.1872  -12.5351   -2.0785 H   0  0  0  0  0  0
   15.8026  -13.2916   -2.4402 H   0  0  0  0  0  0
   15.4634  -11.7824   -3.2710 H   0  0  0  0  0  0
   17.2408  -12.3097   -4.9654 H   0  0  0  0  0  0
   17.5728  -13.8243   -4.1443 H   0  0  0  0  0  0
   16.0664  -14.2064   -6.1123 H   0  0  0  0  0  0
   14.8794  -13.0778   -5.4422 H   0  0  0  0  0  0
   15.2131  -14.6032   -4.6136 H   0  0  0  0  0  0
  1  2  1  0  0  0
  1 41  1  0  0  0
  1 42  1  0  0  0
  1 43  1  0  0  0
  2  3  1  0  0  0
  2 44  1  0  0  0
  2 45  1  0  0  0
  3  4  1  0  0  0
  3 46  1  0  0  0
  3 47  1  0  0  0
  4  5  1  0  0  0
  4 48  1  0  0  0
  4 49  1  0  0  0
  5  6  1  0  0  0
  5 50  1  0  0  0
  5 51  1  0  0  0
  6  7  1  0  0  0
  6 52  1  0  0  0
  6 53  1  0  0  0
  7  8  1  0  0  0
  7 54  1  0  0  0
  7 55  1  0  0  0
  8  9  1  0  0  0
  8 56  1  0  0  0
  8 57  1  0  0  0
  9 10  1  0  0  0
  9 58  1  0  0  0
  9 59  1  0  0  0
 10 11  1  0  0  0
 10 60  1  0  0  0
 10 61  1  0  0  0
 11 12  1  0  0  0
 11 62  1  0  0  0
 11 63  1  0  0  0
 12 13  1  0  0  0
 12 64  1  0  0  0
 12 65  1  0  0  0
 13 14  1  0  0  0
 13 66  1  0  0  0
 13 67  1  0  0  0
 14 15  1  0  0  0
 14 68  1  0  0  0
 14 69  1  0  0  0
 15 16  1  0  0  0
 15 70  1  0  0  0
 15 71  1  0  0  0
 16 17  1  0  0  0
 16 72  1  0  0  0
 16 73  1  0  0  0
 17 18  1  0  0  0
 17 74  1  0  0  0
 17 75  1  0  0  0
 18 19  1  0  0  0
 18 76  1  0  0  0
 18 77  1  0  0  0
 19 20  1  0  0  0
 19 78  1  0  0  0
 19 79  1  0  0  0
 20 21  1  0  0  0
 20 80  1  0  0  0
 20 81  1  0  0  0
 21 22  1  0  0  0
 21 82  1  0  0  0
 21 83  1  0  0  0
 22 23  1  0  0  0
 22 84  1  0  0  0
 22 85  1  0  0  0
 23 24  1  0  0  0
 23 86  1  0  0  0
 23 87  1  0  0  0
 24 25  1  0  0  0
 24 88  1  0  0  0
 24 89  1  0  0  0
 25 26  1  0  0  0
 25 90  1  0  0  0
 25 91  1  0  0  0
 26 27  1  0  0  0
 26 92  1  0  0  0
 26 93  1  0  0  0
 27 28  1  0  0  0
 27 94  1  0  0  0
 27 95  1  0  0  0
 28 29  1  0  0  0
 28 96  1  0  0  0
 28 97  1  0  0  0
 29 30  1  0  0  0
 29 98  1  0  0  0
 29 99  1  0  0  0
 30 31  1  0  0  0
 30100  1  0  0  0
 30101  1  0  0  0
 31 32  1  0  0  0
 31102  1  0  0  0
 31103  1  0  0  0
 32 33  1  0  0  0
 32104  1  0  0  0
 32105  1  0  0  0
 33 34  1  0  0  0
 33106  1  0  0  0
 33107  1  0  0  0
 34 35  1  0  0  0
 34108  1  0  0  0
 34109  1  0  0  0
 35 36  1  0  0  0
 35110  1  0  0  0
 35111  1  0  0  0
 36 37  1  0  0  0
 36112  1  0  0  0
 36113  1  0  0  0
 37 38  1  0  0  0
 37114  1  0  0  0
 37115  1  0  0  0
 38 39  1  0  0  0
 38116  1  0  0  0
 38117  1  0  0  0
 39 40  1  0  0  0
 39118  1  0  0  0
 39119  1  0  0  0
 40120  1  0  0  0
 40121  1  0  0  0
 40122  1  0  0  0
M  END
>  <s_lp_Force_Field> (1)
S-OPLS

>  <r_lp_Energy> (1)
22.787576

>  <b_lp_Chiralities_Consistent> (1)
1

>  <r_epik_Ionization_Penalty> (1)
  0.0000

>  <r_epik_Ionization_Penalty_Charging> (1)
  0.0000

>  <r_epik_Ionization_Penalty_Neutral> (1)
  0.0000

>  <r_epik_State_Penalty> (1)
  0.0000

>  <r_epik_Charging_Adjusted_Penalty> (1)
0

>  <i_epik_Tot_Q> (1)
0

>  <i_epik_Tot_abs_Q> (1)
0

>  <i_m_Spin_multiplicity> (1)
1

>  <s_j_Task> (1)
Single Point

>  <s_j_QM_Method> (1)
DFT(b3lyp-d3)

>  <s_j_QM_Basis> (1)
6-31g**

>  <i_j_Number_of_canonical_orbitals> (1)
1010

>  <i_j_Geometry_convergence_category> (1)
4

>  <r_j_Gas_Phase_Energy> (1)
-1573.96657916313

>  <r_j_Final_Energy> (1)
-1573.96657916313

>  <r_j_HOMO> (1)
-0.280040652465359

>  <r_j_LUMO> (1)
0.0891780885813453

>  <r_j_Polarizability> (1)
446.296578235088

>  <r_j_QM_Dipole_(debye)> (1)
0.0386161556617932

>  <r_j_QM_Dipole_X_(debye)> (1)
0.031421656878958

>  <r_j_QM_Dipole_Y_(debye)> (1)
0.0149237031152433

>  <r_j_QM_Dipole_Z_(debye)> (1)
-0.0167681257868896

>  <r_j_Lowest_Frequency_(cm-1)> (1)
4.24475432568517

>  <r_j_Highest_Frequency_(cm-1)> (1)
3106.80819995809

>  <r_j_2nd_Lowest_Frequency_(cm-1)> (1)
6.56710712010849

>  <i_j_Num_Negative_Frequencies> (1)
0

>  <r_j_Zero_Point_Energy_(kcal/mol)> (1)
731.42958499755

>  <r_j_Entropy_(cal/mol/K)_298.15K_1.00E+00atm> (1)
279.788748073051

>  <r_j_Enthalpy_(kcal/mol)_298.15K_1.00E+00atm> (1)
32.3714770168947

>  <r_j_Free_Energy_(kcal/mol)_298.15K_1.00E+00atm> (1)
-51.0475382210856

>  <r_j_Internal_Energy_(kcal/mol)_298.15K_1.00E+00atm> (1)
31.7789914280674

>  <r_j_Heat_Capacity_(cal/mol/K)_298.15K_1.00E+00atm> (1)
191.20052246634

>  <r_j_ln(Q)_298.15K_1.00E+00atm> (1)
86.1582782496458

>  <r_j_Total_Internal_Energy_(au)_298.15K_1.00E+00atm> (1)
-1572.75032887064

>  <r_j_Total_Enthalpy_(au)_298.15K_1.00E+00atm> (1)
-1572.74938468475

>  <r_j_Total_Free_Energy_(au)_298.15K_1.00E+00atm> (1)
-1572.88232134822

>  <r_lp_tautomer_probability> (1)
1

$$$$
