20197_1-ethyl-4-isopropylbenzene
                    3D
 Schrodinger Suite 2021-3.
 27 27  0  0  1  0            999 V2000
   -4.8912   -0.0134   -1.4534 C   0  0  0  0  0  0
   -4.3441   -0.0185   -0.0150 C   0  0  0  0  0  0
   -2.8313   -0.0038    0.0238 C   0  0  0  0  0  0
   -2.0955   -1.1930    0.0204 C   0  0  0  0  0  0
   -0.7006   -1.1762    0.0100 C   0  0  0  0  0  0
    0.0109    0.0278    0.0029 C   0  0  0  0  0  0
   -0.7274    1.2194    0.0048 C   0  0  0  0  0  0
   -2.1201    1.2031    0.0152 C   0  0  0  0  0  0
    1.5329    0.0394   -0.0004 C   0  0  0  0  0  0
    2.0978    0.7030    1.2689 C   0  0  0  0  0  0
    2.0939    0.7113   -1.2669 C   0  0  0  0  0  0
   -5.9863   -0.0240   -1.4617 H   0  0  0  0  0  0
   -4.5361   -0.8893   -2.0062 H   0  0  0  0  0  0
   -4.5535    0.8771   -1.9936 H   0  0  0  0  0  0
   -4.7354    0.8525    0.5243 H   0  0  0  0  0  0
   -4.7178   -0.9047    0.5118 H   0  0  0  0  0  0
   -2.6204   -2.1457    0.0280 H   0  0  0  0  0  0
   -0.1547   -2.1170    0.0121 H   0  0  0  0  0  0
   -0.2083    2.1745    0.0028 H   0  0  0  0  0  0
   -2.6675    2.1431    0.0187 H   0  0  0  0  0  0
    1.8670   -1.0065   -0.0044 H   0  0  0  0  0  0
    1.7228    0.2115    2.1716 H   0  0  0  0  0  0
    1.8114    1.7592    1.3205 H   0  0  0  0  0  0
    3.1923    0.6540    1.2793 H   0  0  0  0  0  0
    1.7170    0.2252   -2.1718 H   0  0  0  0  0  0
    3.1883    0.6632   -1.2802 H   0  0  0  0  0  0
    1.8069    1.7677   -1.3113 H   0  0  0  0  0  0
  1  2  1  0  0  0
  1 12  1  0  0  0
  1 13  1  0  0  0
  1 14  1  0  0  0
  2  3  1  0  0  0
  2 15  1  0  0  0
  2 16  1  0  0  0
  3  8  1  0  0  0
  3  4  2  0  0  0
  4  5  1  0  0  0
  4 17  1  0  0  0
  5  6  2  0  0  0
  5 18  1  0  0  0
  6  7  1  0  0  0
  6  9  1  0  0  0
  7  8  2  0  0  0
  7 19  1  0  0  0
  8 20  1  0  0  0
  9 10  1  0  0  0
  9 11  1  0  0  0
  9 21  1  0  0  0
 10 22  1  0  0  0
 10 23  1  0  0  0
 10 24  1  0  0  0
 11 25  1  0  0  0
 11 26  1  0  0  0
 11 27  1  0  0  0
M  END
>  <i_m_Spin_multiplicity> (1)
1

>  <s_j_Task> (1)
Single Point

>  <s_j_QM_Method> (1)
DFT(b3lyp-d3)

>  <s_j_QM_Basis> (1)
cc-pvtz(-f)

>  <i_j_Number_of_canonical_orbitals> (1)
389

>  <i_j_Geometry_convergence_category> (1)
0

>  <r_j_Gas_Phase_Energy> (1)
-428.984080789296

>  <r_j_Final_Energy> (1)
-428.984080789296

>  <r_j_HOMO> (1)
-0.234494480980629

>  <r_j_LUMO> (1)
-0.00957299884514613

>  <r_j_Polarizability> (1)
129.193254926945

>  <r_j_QM_Dipole_(debye)> (1)
0.0503516133885965

>  <r_j_QM_Dipole_X_(debye)> (1)
-0.0212280252875988

>  <r_j_QM_Dipole_Y_(debye)> (1)
-0.0263688443202054

>  <r_j_QM_Dipole_Z_(debye)> (1)
-0.037273850920458

>  <r_j_Lowest_Frequency_(cm-1)> (1)
72.1380822223983

>  <r_j_Highest_Frequency_(cm-1)> (1)
3127.17939085071

>  <r_j_2nd_Lowest_Frequency_(cm-1)> (1)
83.6356498016345

>  <i_j_Num_Negative_Frequencies> (1)
0

>  <r_j_Zero_Point_Energy_(kcal/mol)> (1)
150.922408148339

>  <r_j_Entropy_(cal/mol/K)_298.15K_1.00E+00atm> (1)
100.670872357608

>  <r_j_Enthalpy_(kcal/mol)_298.15K_1.00E+00atm> (1)
7.46044468025604

>  <r_j_Free_Energy_(kcal/mol)_298.15K_1.00E+00atm> (1)
-22.5545759131648

>  <r_j_Internal_Energy_(kcal/mol)_298.15K_1.00E+00atm> (1)
6.86795909142877

>  <r_j_Heat_Capacity_(cal/mol/K)_298.15K_1.00E+00atm> (1)
43.3047722333413

>  <r_j_ln(Q)_298.15K_1.00E+00atm> (1)
38.0677206981655

>  <r_j_Total_Internal_Energy_(au)_298.15K_1.00E+00atm> (1)
-428.732625831588

>  <r_j_Total_Enthalpy_(au)_298.15K_1.00E+00atm> (1)
-428.731681645696

>  <r_j_Total_Free_Energy_(au)_298.15K_1.00E+00atm> (1)
-428.779513625974

>  <r_lp_tautomer_probability> (1)
1

>  <r_epik_Ionization_Penalty> (1)
  0.0000

>  <r_epik_Ionization_Penalty_Charging> (1)
  0.0000

>  <r_epik_Ionization_Penalty_Neutral> (1)
  0.0000

>  <r_epik_State_Penalty> (1)
  0.0000

>  <r_epik_Charging_Adjusted_Penalty> (1)
0

>  <i_epik_Tot_Q> (1)
0

>  <i_epik_Tot_abs_Q> (1)
0

>  <s_lp_Force_Field> (1)
S-OPLS

>  <r_lp_Energy> (1)
10.82402

>  <b_lp_Chiralities_Consistent> (1)
1

$$$$
