20283_Hexylcyclohexane
                    3D
 Schrodinger Suite 2021-3.
 36 36  0  0  1  0            999 V2000
   -2.1578    1.6728   -0.1242 C   0  0  0  0  0  0
   -0.6297    1.5737   -0.0982 C   0  0  0  0  0  0
   -0.1218    0.1294   -0.0128 C   0  0  0  0  0  0
    1.4069    0.0233    0.0149 C   0  0  0  0  0  0
    1.9202   -1.4193    0.0969 C   0  0  0  0  0  0
    3.4513   -1.5054    0.1329 C   0  0  0  0  0  0
    4.0307   -2.9299    0.1090 C   0  0  0  0  0  0
    5.5639   -2.8944   -0.0455 C   0  0  0  0  0  0
    6.1835   -4.2992   -0.0730 C   0  0  0  0  0  0
    5.7904   -5.1049    1.1737 C   0  0  0  0  0  0
    4.2641   -5.1614    1.3309 C   0  0  0  0  0  0
    3.6465   -3.7542    1.3533 C   0  0  0  0  0  0
   -2.4935    2.7133   -0.1855 H   0  0  0  0  0  0
   -2.5966    1.2334    0.7791 H   0  0  0  0  0  0
   -2.5729    1.1369   -0.9857 H   0  0  0  0  0  0
   -0.2146    2.0495   -0.9972 H   0  0  0  0  0  0
   -0.2382    2.1448    0.7548 H   0  0  0  0  0  0
   -0.5371   -0.3486    0.8862 H   0  0  0  0  0  0
   -0.5118   -0.4434   -0.8666 H   0  0  0  0  0  0
    1.8205    0.5057   -0.8824 H   0  0  0  0  0  0
    1.7946    0.5950    0.8703 H   0  0  0  0  0  0
    1.4937   -1.8984    0.9874 H   0  0  0  0  0  0
    1.5442   -1.9889   -0.7653 H   0  0  0  0  0  0
    3.8532   -0.9508   -0.7271 H   0  0  0  0  0  0
    3.8235   -0.9838    1.0273 H   0  0  0  0  0  0
    3.6198   -3.4477   -0.7734 H   0  0  0  0  0  0
    5.8326   -2.3432   -0.9557 H   0  0  0  0  0  0
    5.9891   -2.3287    0.7972 H   0  0  0  0  0  0
    5.8333   -4.8301   -0.9699 H   0  0  0  0  0  0
    7.2747   -4.2305   -0.1570 H   0  0  0  0  0  0
    6.2083   -6.1175    1.1238 H   0  0  0  0  0  0
    6.2268   -4.6278    2.0632 H   0  0  0  0  0  0
    3.8372   -5.7271    0.4902 H   0  0  0  0  0  0
    3.9931   -5.7068    2.2428 H   0  0  0  0  0  0
    3.9950   -3.2186    2.2496 H   0  0  0  0  0  0
    2.5569   -3.8306    1.4402 H   0  0  0  0  0  0
  1  2  1  0  0  0
  1 13  1  0  0  0
  1 14  1  0  0  0
  1 15  1  0  0  0
  2  3  1  0  0  0
  2 16  1  0  0  0
  2 17  1  0  0  0
  3  4  1  0  0  0
  3 18  1  0  0  0
  3 19  1  0  0  0
  4  5  1  0  0  0
  4 20  1  0  0  0
  4 21  1  0  0  0
  5  6  1  0  0  0
  5 22  1  0  0  0
  5 23  1  0  0  0
  6  7  1  0  0  0
  6 24  1  0  0  0
  6 25  1  0  0  0
  7 12  1  0  0  0
  7  8  1  0  0  0
  7 26  1  0  0  0
  8  9  1  0  0  0
  8 27  1  0  0  0
  8 28  1  0  0  0
  9 10  1  0  0  0
  9 29  1  0  0  0
  9 30  1  0  0  0
 10 11  1  0  0  0
 10 31  1  0  0  0
 10 32  1  0  0  0
 11 12  1  0  0  0
 11 33  1  0  0  0
 11 34  1  0  0  0
 12 35  1  0  0  0
 12 36  1  0  0  0
M  END
>  <i_m_Spin_multiplicity> (1)
1

>  <s_j_Task> (1)
Single Point

>  <s_j_QM_Method> (1)
DFT(b3lyp-d3)

>  <s_j_QM_Basis> (1)
cc-pvtz(-f)

>  <i_j_Number_of_canonical_orbitals> (1)
486

>  <i_j_Geometry_convergence_category> (1)
3

>  <r_j_Gas_Phase_Energy> (1)
-471.950380365963

>  <r_j_Final_Energy> (1)
-471.950380365963

>  <r_j_HOMO> (1)
-0.301121209499702

>  <r_j_LUMO> (1)
0.00724952411288693

>  <r_j_Polarizability> (1)
143.770991532173

>  <r_j_QM_Dipole_(debye)> (1)
0.0587545440525141

>  <r_j_QM_Dipole_X_(debye)> (1)
0.0297085391523609

>  <r_j_QM_Dipole_Y_(debye)> (1)
-0.0444019159440428

>  <r_j_QM_Dipole_Z_(debye)> (1)
-0.0244534048498284

>  <r_j_Lowest_Frequency_(cm-1)> (1)
61.7812177626965

>  <r_j_Highest_Frequency_(cm-1)> (1)
3045.64883651379

>  <r_j_2nd_Lowest_Frequency_(cm-1)> (1)
73.5690724971118

>  <i_j_Num_Negative_Frequencies> (1)
0

>  <r_j_Zero_Point_Energy_(kcal/mol)> (1)
213.245670451569

>  <r_j_Entropy_(cal/mol/K)_298.15K_1.00E+00atm> (1)
110.828359617946

>  <r_j_Enthalpy_(kcal/mol)_298.15K_1.00E+00atm> (1)
8.78687379145441

>  <r_j_Free_Energy_(kcal/mol)_298.15K_1.00E+00atm> (1)
-24.2566016286362

>  <r_j_Internal_Energy_(kcal/mol)_298.15K_1.00E+00atm> (1)
8.19438820262714

>  <r_j_Heat_Capacity_(cal/mol/K)_298.15K_1.00E+00atm> (1)
51.740491098036

>  <r_j_ln(Q)_298.15K_1.00E+00atm> (1)
40.9404078108432

>  <r_j_Total_Internal_Energy_(au)_298.15K_1.00E+00atm> (1)
-471.597493167855

>  <r_j_Total_Enthalpy_(au)_298.15K_1.00E+00atm> (1)
-471.596548981963

>  <r_j_Total_Free_Energy_(au)_298.15K_1.00E+00atm> (1)
-471.649207112238

>  <r_lp_tautomer_probability> (1)
1

>  <r_epik_Ionization_Penalty> (1)
  0.0000

>  <r_epik_Ionization_Penalty_Charging> (1)
  0.0000

>  <r_epik_Ionization_Penalty_Neutral> (1)
  0.0000

>  <r_epik_State_Penalty> (1)
  0.0000

>  <r_epik_Charging_Adjusted_Penalty> (1)
0

>  <i_epik_Tot_Q> (1)
0

>  <i_epik_Tot_abs_Q> (1)
0

>  <s_lp_Force_Field> (1)
S-OPLS

>  <r_lp_Energy> (1)
10.3355

>  <b_lp_Chiralities_Consistent> (1)
1

$$$$
