20307_Heptadienal
                    3D
 Schrodinger Suite 2021-3.
 18 17  0  0  1  0            999 V2000
   -0.6365    1.4232   -0.2646 C   0  0  0  0  0  0
   -0.0072    0.0773    0.1408 C   0  0  0  0  0  0
    1.4890    0.1436    0.1831 C   0  0  0  0  0  0
    2.2496   -0.0661    1.2733 C   0  0  0  0  0  0
    3.6928    0.0292    1.2711 C   0  0  0  0  0  0
    4.4874   -0.1725    2.3451 C   0  0  0  0  0  0
    5.9430   -0.0526    2.2516 C   0  0  0  0  0  0
    6.7105   -0.2219    3.1837 O   0  0  0  0  0  0
   -1.7258    1.3411   -0.3256 H   0  0  0  0  0  0
   -0.2684    1.7517   -1.2426 H   0  0  0  0  0  0
   -0.3913    2.2023    0.4637 H   0  0  0  0  0  0
   -0.3959   -0.2409    1.1150 H   0  0  0  0  0  0
   -0.3118   -0.6889   -0.5864 H   0  0  0  0  0  0
    1.9826    0.4039   -0.7552 H   0  0  0  0  0  0
    1.7711   -0.3214    2.2186 H   0  0  0  0  0  0
    4.1639    0.2859    0.3202 H   0  0  0  0  0  0
    4.0787   -0.4308    3.3194 H   0  0  0  0  0  0
    6.3235    0.2134    1.2372 H   0  0  0  0  0  0
  1  2  1  0  0  0
  1  9  1  0  0  0
  1 10  1  0  0  0
  1 11  1  0  0  0
  2  3  1  0  0  0
  2 12  1  0  0  0
  2 13  1  0  0  0
  3  4  2  0  0  0
  3 14  1  0  0  0
  4  5  1  0  0  0
  4 15  1  0  0  0
  5  6  2  0  0  0
  5 16  1  0  0  0
  6  7  1  0  0  0
  6 17  1  0  0  0
  7  8  2  0  0  0
  7 18  1  0  0  0
M  END
>  <i_m_Spin_multiplicity> (1)
1

>  <s_j_Task> (1)
Single Point

>  <s_j_QM_Method> (1)
DFT(b3lyp-d3)

>  <s_j_QM_Basis> (1)
cc-pvtz(-f)

>  <i_j_Number_of_canonical_orbitals> (1)
272

>  <i_j_Geometry_convergence_category> (1)
0

>  <r_j_Gas_Phase_Energy> (1)
-348.086013427788

>  <r_j_Final_Energy> (1)
-348.086013427788

>  <r_j_HOMO> (1)
-0.258054826684185

>  <r_j_LUMO> (1)
-0.0897469176876402

>  <r_j_Polarizability> (1)
104.27697046095

>  <r_j_QM_Dipole_(debye)> (1)
5.18322408801872

>  <r_j_QM_Dipole_X_(debye)> (1)
-4.30444858200714

>  <r_j_QM_Dipole_Y_(debye)> (1)
0.467781960352855

>  <r_j_QM_Dipole_Z_(debye)> (1)
-2.84933578032543

>  <r_j_Lowest_Frequency_(cm-1)> (1)
79.2672274961455

>  <r_j_Highest_Frequency_(cm-1)> (1)
3125.87396016496

>  <r_j_2nd_Lowest_Frequency_(cm-1)> (1)
123.75291450435

>  <i_j_Num_Negative_Frequencies> (1)
0

>  <r_j_Zero_Point_Energy_(kcal/mol)> (1)
94.99798446297

>  <r_j_Entropy_(cal/mol/K)_298.15K_1.00E+00atm> (1)
90.5158290498636

>  <r_j_Enthalpy_(kcal/mol)_298.15K_1.00E+00atm> (1)
6.0627996378914

>  <r_j_Free_Energy_(kcal/mol)_298.15K_1.00E+00atm> (1)
-20.9244947933254

>  <r_j_Internal_Energy_(kcal/mol)_298.15K_1.00E+00atm> (1)
5.47031404906412

>  <r_j_Heat_Capacity_(cal/mol/K)_298.15K_1.00E+00atm> (1)
31.3196430551728

>  <r_j_ln(Q)_298.15K_1.00E+00atm> (1)
35.3164620168095

>  <r_j_Total_Internal_Energy_(au)_298.15K_1.00E+00atm> (1)
-347.925907001805

>  <r_j_Total_Enthalpy_(au)_298.15K_1.00E+00atm> (1)
-347.924962815913

>  <r_j_Total_Free_Energy_(au)_298.15K_1.00E+00atm> (1)
-347.967969807395

>  <r_lp_tautomer_probability> (1)
1

>  <r_epik_Ionization_Penalty> (1)
  0.0000

>  <r_epik_Ionization_Penalty_Charging> (1)
  0.0000

>  <r_epik_Ionization_Penalty_Neutral> (1)
  0.0000

>  <r_epik_State_Penalty> (1)
  0.0000

>  <r_epik_Charging_Adjusted_Penalty> (1)
0

>  <i_epik_Tot_Q> (1)
0

>  <i_epik_Tot_abs_Q> (1)
0

>  <s_lp_Force_Field> (1)
S-OPLS

>  <r_lp_Energy> (1)
-1.931732

>  <b_lp_Chiralities_Consistent> (1)
1

$$$$
