20310_1,2-Benzenedicarboxylic acid, 4-methyl-
                    3D
 Schrodinger Suite 2021-3.
 19 19  0  0  1  0            999 V2000
    0.0130    0.0183    0.0031 C   0  0  0  0  0  0
    1.5274    0.0153   -0.0005 C   0  0  0  0  0  0
    2.2552    1.2090   -0.0075 C   0  0  0  0  0  0
    3.6600    1.2619   -0.0177 C   0  0  0  0  0  0
    4.3777    0.0420    0.0162 C   0  0  0  0  0  0
    3.6414   -1.1560    0.0076 C   0  0  0  0  0  0
    2.2472   -1.1872    0.0039 C   0  0  0  0  0  0
    5.9166   -0.1210    0.1729 C   0  0  0  0  0  0
    6.4364   -1.0189   -0.5495 O   0  0  0  0  0  0
    6.4437    0.5730    1.0730 O   0  5  0  0  0  0
    4.2690    2.6849   -0.1762 C   0  0  0  0  0  0
    5.1365    2.8021   -1.0723 O   0  0  0  0  0  0
    3.7352    3.5799    0.5398 O   0  5  0  0  0  0
   -0.3784    1.0427    0.0008 H   0  0  0  0  0  0
   -0.4045   -0.4892    0.8871 H   0  0  0  0  0  0
   -0.4099   -0.4953   -0.8750 H   0  0  0  0  0  0
    1.7339    2.1656    0.0107 H   0  0  0  0  0  0
    4.2153   -2.0805   -0.0099 H   0  0  0  0  0  0
    1.7152   -2.1426    0.0040 H   0  0  0  0  0  0
  1  2  1  0  0  0
  1 14  1  0  0  0
  1 15  1  0  0  0
  1 16  1  0  0  0
  2  7  1  0  0  0
  2  3  2  0  0  0
  3  4  1  0  0  0
  3 17  1  0  0  0
  4  5  2  0  0  0
  4 11  1  0  0  0
  5  6  1  0  0  0
  5  8  1  0  0  0
  6  7  2  0  0  0
  6 18  1  0  0  0
  7 19  1  0  0  0
  8  9  2  0  0  0
  8 10  1  0  0  0
 11 12  2  0  0  0
 11 13  1  0  0  0
M  END
>  <i_m_Spin_multiplicity> (1)
1

>  <s_j_Task> (1)
Single Point

>  <s_j_QM_Method> (1)
DFT(b3lyp-d3)

>  <s_j_QM_Basis> (1)
cc-pvtz(-f)

>  <i_j_Number_of_canonical_orbitals> (1)
347

>  <i_j_Geometry_convergence_category> (1)
0

>  <r_j_Gas_Phase_Energy> (1)
-647.705734481411

>  <r_j_Final_Energy> (1)
-647.705734481411

>  <r_j_HOMO> (1)
0.0920744782954127

>  <r_j_LUMO> (1)
0.229365838235587

>  <r_j_Polarizability> (1)
124.481683228987

>  <r_j_QM_Dipole_(debye)> (1)
11.6057934246446

>  <r_j_QM_Dipole_X_(debye)> (1)
-10.465361303495

>  <r_j_QM_Dipole_Y_(debye)> (1)
-5.01702872721011

>  <r_j_QM_Dipole_Z_(debye)> (1)
0.00874946751542066

>  <r_j_Lowest_Frequency_(cm-1)> (1)
77.3768552166464

>  <r_j_Highest_Frequency_(cm-1)> (1)
3104.71444428634

>  <r_j_2nd_Lowest_Frequency_(cm-1)> (1)
99.5204945157684

>  <i_j_Num_Negative_Frequencies> (1)
0

>  <r_j_Zero_Point_Energy_(kcal/mol)> (1)
81.2039089570608

>  <r_j_Entropy_(cal/mol/K)_298.15K_1.00E+00atm> (1)
103.734813774244

>  <r_j_Enthalpy_(kcal/mol)_298.15K_1.00E+00atm> (1)
7.56181010618627

>  <r_j_Free_Energy_(kcal/mol)_298.15K_1.00E+00atm> (1)
-23.3667246206046

>  <r_j_Internal_Energy_(kcal/mol)_298.15K_1.00E+00atm> (1)
6.96932451735899

>  <r_j_Heat_Capacity_(cal/mol/K)_298.15K_1.00E+00atm> (1)
40.9354001381281

>  <r_j_ln(Q)_298.15K_1.00E+00atm> (1)
39.4384691564484

>  <r_j_Total_Internal_Energy_(au)_298.15K_1.00E+00atm> (1)
-647.565221488875

>  <r_j_Total_Enthalpy_(au)_298.15K_1.00E+00atm> (1)
-647.564277302983

>  <r_j_Total_Free_Energy_(au)_298.15K_1.00E+00atm> (1)
-647.613565060707

>  <r_epik_Ionization_Penalty> (1)
  0.0171

>  <r_epik_Ionization_Penalty_Charging> (1)
  0.0171

>  <r_epik_Ionization_Penalty_Neutral> (1)
  0.0000

>  <r_epik_State_Penalty> (1)
  0.0128

>  <r_epik_Charging_Adjusted_Penalty> (1)
0.0298896

>  <i_epik_Tot_Q> (1)
-2

>  <i_epik_Tot_abs_Q> (1)
2

>  <s_lp_Force_Field> (1)
S-OPLS

>  <r_lp_Energy> (1)
58.1791

>  <b_lp_Chiralities_Consistent> (1)
1

$$$$
