20329911_3-ethyl-3-methyloctane
                    3D
 Schrodinger Suite 2021-3.
 35 34  0  0  1  0            999 V2000
   -4.2596    2.8509    0.0090 C   0  0  0  0  0  0
   -2.7311    2.8817    0.0981 C   0  0  0  0  0  0
   -2.0918    1.4952   -0.0436 C   0  0  0  0  0  0
   -0.5609    1.5226    0.0471 C   0  0  0  0  0  0
    0.0605    0.1232   -0.0711 C   0  0  0  0  0  0
    1.6116    0.0345   -0.0964 C   0  0  0  0  0  0
    2.1588    0.7094   -1.3714 C   0  0  0  0  0  0
    2.1785    0.7432    1.1655 C   0  0  0  0  0  0
    3.6936    0.6517    1.3905 C   0  0  0  0  0  0
    2.0325   -1.4614   -0.0661 C   0  0  0  0  0  0
    1.4673   -2.3625   -1.1720 C   0  0  0  0  0  0
   -4.6898    3.8525    0.1136 H   0  0  0  0  0  0
   -4.6874    2.2201    0.7968 H   0  0  0  0  0  0
   -4.5903    2.4445   -0.9538 H   0  0  0  0  0  0
   -2.3300    3.5452   -0.6803 H   0  0  0  0  0  0
   -2.4273    3.3225    1.0575 H   0  0  0  0  0  0
   -2.4917    0.8300    0.7355 H   0  0  0  0  0  0
   -2.3945    1.0517   -1.0032 H   0  0  0  0  0  0
   -0.1698    2.1773   -0.7427 H   0  0  0  0  0  0
   -0.2750    1.9867    0.9989 H   0  0  0  0  0  0
   -0.3083   -0.4931    0.7621 H   0  0  0  0  0  0
   -0.3303   -0.3415   -0.9851 H   0  0  0  0  0  0
    3.2349    0.5415   -1.4818 H   0  0  0  0  0  0
    1.9951    1.7915   -1.3530 H   0  0  0  0  0  0
    1.6713    0.3190   -2.2704 H   0  0  0  0  0  0
    1.9066    1.8040    1.1186 H   0  0  0  0  0  0
    1.6641    0.3374    2.0481 H   0  0  0  0  0  0
    3.9826    1.2477    2.2625 H   0  0  0  0  0  0
    4.2563    1.0348    0.5330 H   0  0  0  0  0  0
    4.0239   -0.3747    1.5747 H   0  0  0  0  0  0
    3.1265   -1.5149   -0.1116 H   0  0  0  0  0  0
    1.7489   -1.8792    0.9103 H   0  0  0  0  0  0
    1.8844   -3.3716   -1.0873 H   0  0  0  0  0  0
    1.7190   -1.9891   -2.1699 H   0  0  0  0  0  0
    0.3788   -2.4548   -1.1148 H   0  0  0  0  0  0
  1  2  1  0  0  0
  1 12  1  0  0  0
  1 13  1  0  0  0
  1 14  1  0  0  0
  2  3  1  0  0  0
  2 15  1  0  0  0
  2 16  1  0  0  0
  3  4  1  0  0  0
  3 17  1  0  0  0
  3 18  1  0  0  0
  4  5  1  0  0  0
  4 19  1  0  0  0
  4 20  1  0  0  0
  5  6  1  0  0  0
  5 21  1  0  0  0
  5 22  1  0  0  0
  6  7  1  0  0  0
  6  8  1  0  0  0
  6 10  1  0  0  0
  7 23  1  0  0  0
  7 24  1  0  0  0
  7 25  1  0  0  0
  8  9  1  0  0  0
  8 26  1  0  0  0
  8 27  1  0  0  0
  9 28  1  0  0  0
  9 29  1  0  0  0
  9 30  1  0  0  0
 10 11  1  0  0  0
 10 31  1  0  0  0
 10 32  1  0  0  0
 11 33  1  0  0  0
 11 34  1  0  0  0
 11 35  1  0  0  0
M  END
>  <i_m_Spin_multiplicity> (1)
1

>  <s_j_Task> (1)
Single Point

>  <s_j_QM_Method> (1)
DFT(b3lyp-d3)

>  <s_j_QM_Basis> (1)
cc-pvtz(-f)

>  <i_j_Number_of_canonical_orbitals> (1)
465

>  <i_j_Geometry_convergence_category> (1)
0

>  <r_j_Gas_Phase_Energy> (1)
-433.825528355115

>  <r_j_Final_Energy> (1)
-433.825528355115

>  <r_j_HOMO> (1)
-0.290754770995139

>  <r_j_LUMO> (1)
0.0279505672768914

>  <r_j_Polarizability> (1)
134.861489057935

>  <r_j_QM_Dipole_(debye)> (1)
0.0896355571065112

>  <r_j_QM_Dipole_X_(debye)> (1)
0.0436319912845449

>  <r_j_QM_Dipole_Y_(debye)> (1)
0.0502510843434849

>  <r_j_QM_Dipole_Z_(debye)> (1)
0.0600467397669848

>  <r_j_Lowest_Frequency_(cm-1)> (1)
74.1905734212178

>  <r_j_Highest_Frequency_(cm-1)> (1)
3061.04024800313

>  <r_j_2nd_Lowest_Frequency_(cm-1)> (1)
88.9633891964396

>  <i_j_Num_Negative_Frequencies> (1)
0

>  <r_j_Zero_Point_Energy_(kcal/mol)> (1)
207.393128501252

>  <r_j_Entropy_(cal/mol/K)_298.15K_1.00E+00atm> (1)
113.026212939346

>  <r_j_Enthalpy_(kcal/mol)_298.15K_1.00E+00atm> (1)
9.30085186628687

>  <r_j_Free_Energy_(kcal/mol)_298.15K_1.00E+00atm> (1)
-24.3979135215793

>  <r_j_Internal_Energy_(kcal/mol)_298.15K_1.00E+00atm> (1)
8.70836627745959

>  <r_j_Heat_Capacity_(cal/mol/K)_298.15K_1.00E+00atm> (1)
53.860591391902

>  <r_j_ln(Q)_298.15K_1.00E+00atm> (1)
41.1789146970998

>  <r_j_Total_Internal_Energy_(au)_298.15K_1.00E+00atm> (1)
-433.481148700129

>  <r_j_Total_Enthalpy_(au)_298.15K_1.00E+00atm> (1)
-433.480204514237

>  <r_j_Total_Free_Energy_(au)_298.15K_1.00E+00atm> (1)
-433.533906915554

>  <r_lp_tautomer_probability> (1)
1

>  <r_epik_Ionization_Penalty> (1)
  0.0000

>  <r_epik_Ionization_Penalty_Charging> (1)
  0.0000

>  <r_epik_Ionization_Penalty_Neutral> (1)
  0.0000

>  <r_epik_State_Penalty> (1)
  0.0000

>  <r_epik_Charging_Adjusted_Penalty> (1)
0

>  <i_epik_Tot_Q> (1)
0

>  <i_epik_Tot_abs_Q> (1)
0

>  <s_lp_Force_Field> (1)
S-OPLS

>  <r_lp_Energy> (1)
11.133198

>  <b_lp_Chiralities_Consistent> (1)
1

$$$$
