20514_octadecylcyclohexane
                    3D
 Schrodinger Suite 2021-3.
 72 72  0  0  1  0            999 V2000
   -8.9356    0.7830    3.4672 C   0  0  0  0  0  0
   -7.4192    0.5748    3.5218 C   0  0  0  0  0  0
   -6.6935    1.0956    2.2752 C   0  0  0  0  0  0
   -5.1762    0.8857    2.3269 C   0  0  0  0  0  0
   -4.4378    1.3988    1.0850 C   0  0  0  0  0  0
   -2.9230    1.1722    1.1527 C   0  0  0  0  0  0
   -2.1729    1.6685   -0.0905 C   0  0  0  0  0  0
   -0.6451    1.5175   -0.0086 C   0  0  0  0  0  0
   -0.1562    0.0640    0.0487 C   0  0  0  0  0  0
    1.3726   -0.0561    0.1032 C   0  0  0  0  0  0
    1.8951   -1.5014    0.0801 C   0  0  0  0  0  0
    1.4732   -2.3489    1.2880 C   0  0  0  0  0  0
    2.0799   -3.7571    1.2830 C   0  0  0  0  0  0
    1.6255   -4.6158    2.4692 C   0  0  0  0  0  0
    2.2235   -6.0275    2.4701 C   0  0  0  0  0  0
    1.7446   -6.8888    3.6447 C   0  0  0  0  0  0
    2.3394   -8.3023    3.6502 C   0  0  0  0  0  0
    1.8301   -9.1599    4.8160 C   0  0  0  0  0  0
    2.4717  -10.5526    4.9370 C   0  0  0  0  0  0
    2.0251  -11.2503    6.2369 C   0  0  0  0  0  0
    2.6453  -12.6463    6.3963 C   0  0  0  0  0  0
    2.3388  -13.5335    5.1810 C   0  0  0  0  0  0
    2.7925  -12.8562    3.8798 C   0  0  0  0  0  0
    2.1735  -11.4578    3.7255 C   0  0  0  0  0  0
   -9.4273    0.4025    4.3686 H   0  0  0  0  0  0
   -9.3735    0.2667    2.6051 H   0  0  0  0  0  0
   -9.1845    1.8465    3.3750 H   0  0  0  0  0  0
   -7.0110    1.0738    4.4114 H   0  0  0  0  0  0
   -7.1990   -0.4942    3.6466 H   0  0  0  0  0  0
   -7.1009    0.5977    1.3834 H   0  0  0  0  0  0
   -6.9106    2.1662    2.1490 H   0  0  0  0  0  0
   -4.7715    1.3834    3.2199 H   0  0  0  0  0  0
   -4.9637   -0.1853    2.4568 H   0  0  0  0  0  0
   -4.8407    0.9024    0.1905 H   0  0  0  0  0  0
   -4.6429    2.4710    0.9544 H   0  0  0  0  0  0
   -2.5195    1.6772    2.0425 H   0  0  0  0  0  0
   -2.7333    0.1012    1.3008 H   0  0  0  0  0  0
   -2.5440    1.1324   -0.9759 H   0  0  0  0  0  0
   -2.4184    2.7269   -0.2525 H   0  0  0  0  0  0
   -0.1892    2.0117   -0.8773 H   0  0  0  0  0  0
   -0.2760    2.0576    0.8754 H   0  0  0  0  0  0
   -0.5913   -0.4336    0.9227 H   0  0  0  0  0  0
   -0.5323   -0.4794   -0.8309 H   0  0  0  0  0  0
    1.8039    0.4925   -0.7453 H   0  0  0  0  0  0
    1.7411    0.4476    1.0086 H   0  0  0  0  0  0
    1.5551   -1.9946   -0.8420 H   0  0  0  0  0  0
    2.9922   -1.4825    0.0264 H   0  0  0  0  0  0
    1.7629   -1.8302    2.2136 H   0  0  0  0  0  0
    0.3793   -2.4355    1.3192 H   0  0  0  0  0  0
    1.8121   -4.2642    0.3448 H   0  0  0  0  0  0
    3.1768   -3.6830    1.2839 H   0  0  0  0  0  0
    1.8899   -4.1085    3.4081 H   0  0  0  0  0  0
    0.5283   -4.6876    2.4640 H   0  0  0  0  0  0
    1.9706   -6.5296    1.5251 H   0  0  0  0  0  0
    3.3205   -5.9589    2.4916 H   0  0  0  0  0  0
    1.9929   -6.3855    4.5901 H   0  0  0  0  0  0
    0.6474   -6.9577    3.6190 H   0  0  0  0  0  0
    2.1066   -8.7891    2.6944 H   0  0  0  0  0  0
    3.4359   -8.2358    3.6992 H   0  0  0  0  0  0
    2.0023   -8.6136    5.7544 H   0  0  0  0  0  0
    0.7392   -9.2758    4.7315 H   0  0  0  0  0  0
    3.5646  -10.4182    4.9906 H   0  0  0  0  0  0
    2.2766  -10.6224    7.1012 H   0  0  0  0  0  0
    0.9285  -11.3417    6.2280 H   0  0  0  0  0  0
    3.7349  -12.5464    6.5034 H   0  0  0  0  0  0
    2.2832  -13.1190    7.3172 H   0  0  0  0  0  0
    2.8187  -14.5134    5.2906 H   0  0  0  0  0  0
    1.2558  -13.7171    5.1332 H   0  0  0  0  0  0
    3.8881  -12.7647    3.8857 H   0  0  0  0  0  0
    2.5367  -13.4795    3.0146 H   0  0  0  0  0  0
    1.0822  -11.5531    3.6194 H   0  0  0  0  0  0
    2.5368  -10.9934    2.8020 H   0  0  0  0  0  0
  1  2  1  0  0  0
  1 25  1  0  0  0
  1 26  1  0  0  0
  1 27  1  0  0  0
  2  3  1  0  0  0
  2 28  1  0  0  0
  2 29  1  0  0  0
  3  4  1  0  0  0
  3 30  1  0  0  0
  3 31  1  0  0  0
  4  5  1  0  0  0
  4 32  1  0  0  0
  4 33  1  0  0  0
  5  6  1  0  0  0
  5 34  1  0  0  0
  5 35  1  0  0  0
  6  7  1  0  0  0
  6 36  1  0  0  0
  6 37  1  0  0  0
  7  8  1  0  0  0
  7 38  1  0  0  0
  7 39  1  0  0  0
  8  9  1  0  0  0
  8 40  1  0  0  0
  8 41  1  0  0  0
  9 10  1  0  0  0
  9 42  1  0  0  0
  9 43  1  0  0  0
 10 11  1  0  0  0
 10 44  1  0  0  0
 10 45  1  0  0  0
 11 12  1  0  0  0
 11 46  1  0  0  0
 11 47  1  0  0  0
 12 13  1  0  0  0
 12 48  1  0  0  0
 12 49  1  0  0  0
 13 14  1  0  0  0
 13 50  1  0  0  0
 13 51  1  0  0  0
 14 15  1  0  0  0
 14 52  1  0  0  0
 14 53  1  0  0  0
 15 16  1  0  0  0
 15 54  1  0  0  0
 15 55  1  0  0  0
 16 17  1  0  0  0
 16 56  1  0  0  0
 16 57  1  0  0  0
 17 18  1  0  0  0
 17 58  1  0  0  0
 17 59  1  0  0  0
 18 19  1  0  0  0
 18 60  1  0  0  0
 18 61  1  0  0  0
 19 24  1  0  0  0
 19 20  1  0  0  0
 19 62  1  0  0  0
 20 21  1  0  0  0
 20 63  1  0  0  0
 20 64  1  0  0  0
 21 22  1  0  0  0
 21 65  1  0  0  0
 21 66  1  0  0  0
 22 23  1  0  0  0
 22 67  1  0  0  0
 22 68  1  0  0  0
 23 24  1  0  0  0
 23 69  1  0  0  0
 23 70  1  0  0  0
 24 71  1  0  0  0
 24 72  1  0  0  0
M  END
> <i_m_Spin_multiplicity>
1

> <s_j_Task>
Single Point

> <s_j_QM_Method>
DFT(b3lyp-d3)

> <s_j_QM_Basis>
cc-pvtz(-f)

> <i_j_Number_of_canonical_orbitals>
976

> <i_j_Geometry_convergence_category>
1

> <r_j_Gas_Phase_Energy>
-943.901995855052

> <r_j_Final_Energy>
-943.901995855052

> <r_j_HOMO>
-0.302123659110308

> <r_j_LUMO>
-0.0619272303207001

> <r_j_Polarizability>
293.142803131614

> <r_j_QM_Dipole_(debye)>
0.118585329811346

> <r_j_QM_Dipole_X_(debye)>
0.114881218037103

> <r_j_QM_Dipole_Y_(debye)>
-0.0292785731487809

> <r_j_QM_Dipole_Z_(debye)>
-0.00274797073289872

> <r_j_Lowest_Frequency_(cm-1)>
18.170771691375

> <r_j_Highest_Frequency_(cm-1)>
3045.76912861031

> <r_j_2nd_Lowest_Frequency_(cm-1)>
34.4792508293964

> <i_j_Num_Negative_Frequencies>
0

> <r_j_Zero_Point_Energy_(kcal/mol)>
427.828036399705

> <r_j_Entropy_(cal/mol/K)_298.15K_1.00E+00atm>
176.924380193973

> <r_j_Enthalpy_(kcal/mol)_298.15K_1.00E+00atm>
17.8986702180911

> <r_j_Free_Energy_(kcal/mol)_298.15K_1.00E+00atm>
-34.851333736742

> <r_j_Internal_Energy_(kcal/mol)_298.15K_1.00E+00atm>
17.3061846292638

> <r_j_Heat_Capacity_(cal/mol/K)_298.15K_1.00E+00atm>
108.618162724749

> <r_j_ln(Q)_298.15K_1.00E+00atm>
58.8222471465075

> <r_j_Total_Internal_Energy_(au)_298.15K_1.00E+00atm>
-943.192629315884

> <r_j_Total_Enthalpy_(au)_298.15K_1.00E+00atm>
-943.191685129992

> <r_j_Total_Free_Energy_(au)_298.15K_1.00E+00atm>
-943.275747612674

> <r_lp_tautomer_probability>
1

> <r_epik_Ionization_Penalty>
  0.0000

> <r_epik_Ionization_Penalty_Charging>
  0.0000

> <r_epik_Ionization_Penalty_Neutral>
  0.0000

> <r_epik_State_Penalty>
  0.0000

> <r_epik_Charging_Adjusted_Penalty>
0

> <i_epik_Tot_Q>
0

> <i_epik_Tot_abs_Q>
0

> <s_lp_Force_Field>
S-OPLS

> <r_lp_Energy>
17.549667

> <b_lp_Chiralities_Consistent>
1

$$$$
