20511_Eicosylcyclohexane
                    3D
 Schrodinger Suite 2021-3.
 78 78  0  0  1  0            999 V2000
   -0.8057   10.2527    2.7716 C   0  0  0  0  0  0
   -0.3371    8.8018    2.6273 C   0  0  0  0  0  0
   -0.8064    8.1424    1.3245 C   0  0  0  0  0  0
   -0.3360    6.6910    1.1787 C   0  0  0  0  0  0
   -0.7961    6.0169   -0.1193 C   0  0  0  0  0  0
   -0.3059    4.5699   -0.2460 C   0  0  0  0  0  0
   -0.7556    3.8768   -1.5395 C   0  0  0  0  0  0
   -0.1809    2.4623   -1.7210 C   0  0  0  0  0  0
   -0.7017    1.4371   -0.7025 C   0  0  0  0  0  0
   -0.1260    0.0224   -0.8768 C   0  0  0  0  0  0
    1.3792   -0.0771   -0.5926 C   0  0  0  0  0  0
    1.9152   -1.5134   -0.6085 C   0  0  0  0  0  0
    3.4211   -1.5912   -0.3297 C   0  0  0  0  0  0
    3.9606   -3.0264   -0.2743 C   0  0  0  0  0  0
    5.4842   -3.1227   -0.0945 C   0  0  0  0  0  0
    6.0065   -2.5182    1.2160 C   0  0  0  0  0  0
    7.5143   -2.7255    1.4151 C   0  0  0  0  0  0
    8.0956   -1.9996    2.6386 C   0  0  0  0  0  0
    7.5612   -2.4956    3.9893 C   0  0  0  0  0  0
    8.1815   -1.7504    5.1784 C   0  0  0  0  0  0
    7.7830   -2.2776    6.5673 C   0  0  0  0  0  0
    8.5733   -1.5507    7.6733 C   0  0  0  0  0  0
    8.2043   -2.0445    9.0797 C   0  0  0  0  0  0
    6.6949   -1.9245    9.3339 C   0  0  0  0  0  0
    5.8962   -2.6593    8.2482 C   0  0  0  0  0  0
    6.2705   -2.1650    6.8421 C   0  0  0  0  0  0
   -0.4567   10.6974    3.7096 H   0  0  0  0  0  0
   -1.9000   10.3166    2.7588 H   0  0  0  0  0  0
   -0.4301   10.8719    1.9487 H   0  0  0  0  0  0
    0.7599    8.7630    2.6759 H   0  0  0  0  0  0
   -0.6988    8.2117    3.4806 H   0  0  0  0  0  0
   -1.9044    8.1779    1.2742 H   0  0  0  0  0  0
   -0.4454    8.7313    0.4687 H   0  0  0  0  0  0
    0.7619    6.6599    1.2321 H   0  0  0  0  0  0
   -0.6959    6.1060    2.0374 H   0  0  0  0  0  0
   -1.8942    6.0372   -0.1723 H   0  0  0  0  0  0
   -0.4401    6.6006   -0.9804 H   0  0  0  0  0  0
    0.7928    4.5552   -0.1952 H   0  0  0  0  0  0
   -0.6557    4.0003    0.6249 H   0  0  0  0  0  0
   -1.8541    3.8338   -1.5681 H   0  0  0  0  0  0
   -0.4536    4.4965   -2.3949 H   0  0  0  0  0  0
   -0.4160    2.1021   -2.7321 H   0  0  0  0  0  0
    0.9143    2.5202   -1.6661 H   0  0  0  0  0  0
   -0.4808    1.7793    0.3172 H   0  0  0  0  0  0
   -1.7971    1.3946   -0.7781 H   0  0  0  0  0  0
   -0.6583   -0.6619   -0.2019 H   0  0  0  0  0  0
   -0.3302   -0.3363   -1.8960 H   0  0  0  0  0  0
    1.9390    0.5204   -1.3240 H   0  0  0  0  0  0
    1.5885    0.3733    0.3890 H   0  0  0  0  0  0
    1.3750   -2.1112    0.1398 H   0  0  0  0  0  0
    1.6976   -1.9772   -1.5814 H   0  0  0  0  0  0
    3.9641   -1.0287   -1.1035 H   0  0  0  0  0  0
    3.6307   -1.0794    0.6187 H   0  0  0  0  0  0
    3.4641   -3.5662    0.5451 H   0  0  0  0  0  0
    3.6768   -3.5496   -1.1977 H   0  0  0  0  0  0
    5.7826   -4.1790   -0.1422 H   0  0  0  0  0  0
    5.9813   -2.6290   -0.9421 H   0  0  0  0  0  0
    5.7928   -1.4413    1.2412 H   0  0  0  0  0  0
    5.4522   -2.9582    2.0559 H   0  0  0  0  0  0
    7.7272   -3.8016    1.4922 H   0  0  0  0  0  0
    8.0394   -2.3770    0.5151 H   0  0  0  0  0  0
    9.1893   -2.1035    2.6304 H   0  0  0  0  0  0
    7.8939   -0.9223    2.5461 H   0  0  0  0  0  0
    6.4712   -2.3857    4.0141 H   0  0  0  0  0  0
    7.7635   -3.5726    4.0856 H   0  0  0  0  0  0
    9.2767   -1.7938    5.0900 H   0  0  0  0  0  0
    7.9171   -0.6841    5.1132 H   0  0  0  0  0  0
    8.0505   -3.3462    6.6137 H   0  0  0  0  0  0
    9.6506   -1.6690    7.4996 H   0  0  0  0  0  0
    8.3637   -0.4725    7.6033 H   0  0  0  0  0  0
    8.5038   -3.0975    9.1821 H   0  0  0  0  0  0
    8.7661   -1.4852    9.8375 H   0  0  0  0  0  0
    6.4410   -2.3141   10.3272 H   0  0  0  0  0  0
    6.4127   -0.8616    9.3314 H   0  0  0  0  0  0
    6.1037   -3.7370    8.3168 H   0  0  0  0  0  0
    4.8193   -2.5380    8.4168 H   0  0  0  0  0  0
    5.9726   -1.1105    6.7366 H   0  0  0  0  0  0
    5.7026   -2.7257    6.0912 H   0  0  0  0  0  0
  1  2  1  0  0  0
  1 27  1  0  0  0
  1 28  1  0  0  0
  1 29  1  0  0  0
  2  3  1  0  0  0
  2 30  1  0  0  0
  2 31  1  0  0  0
  3  4  1  0  0  0
  3 32  1  0  0  0
  3 33  1  0  0  0
  4  5  1  0  0  0
  4 34  1  0  0  0
  4 35  1  0  0  0
  5  6  1  0  0  0
  5 36  1  0  0  0
  5 37  1  0  0  0
  6  7  1  0  0  0
  6 38  1  0  0  0
  6 39  1  0  0  0
  7  8  1  0  0  0
  7 40  1  0  0  0
  7 41  1  0  0  0
  8  9  1  0  0  0
  8 42  1  0  0  0
  8 43  1  0  0  0
  9 10  1  0  0  0
  9 44  1  0  0  0
  9 45  1  0  0  0
 10 11  1  0  0  0
 10 46  1  0  0  0
 10 47  1  0  0  0
 11 12  1  0  0  0
 11 48  1  0  0  0
 11 49  1  0  0  0
 12 13  1  0  0  0
 12 50  1  0  0  0
 12 51  1  0  0  0
 13 14  1  0  0  0
 13 52  1  0  0  0
 13 53  1  0  0  0
 14 15  1  0  0  0
 14 54  1  0  0  0
 14 55  1  0  0  0
 15 16  1  0  0  0
 15 56  1  0  0  0
 15 57  1  0  0  0
 16 17  1  0  0  0
 16 58  1  0  0  0
 16 59  1  0  0  0
 17 18  1  0  0  0
 17 60  1  0  0  0
 17 61  1  0  0  0
 18 19  1  0  0  0
 18 62  1  0  0  0
 18 63  1  0  0  0
 19 20  1  0  0  0
 19 64  1  0  0  0
 19 65  1  0  0  0
 20 21  1  0  0  0
 20 66  1  0  0  0
 20 67  1  0  0  0
 21 26  1  0  0  0
 21 22  1  0  0  0
 21 68  1  0  0  0
 22 23  1  0  0  0
 22 69  1  0  0  0
 22 70  1  0  0  0
 23 24  1  0  0  0
 23 71  1  0  0  0
 23 72  1  0  0  0
 24 25  1  0  0  0
 24 73  1  0  0  0
 24 74  1  0  0  0
 25 26  1  0  0  0
 25 75  1  0  0  0
 25 76  1  0  0  0
 26 77  1  0  0  0
 26 78  1  0  0  0
M  END
>  <i_m_Spin_multiplicity> (1)
1

>  <s_j_Task> (1)
Single Point

>  <s_j_QM_Method> (1)
DFT(b3lyp-d3)

>  <s_j_QM_Basis> (1)
cc-pvtz(-f)

>  <i_j_Number_of_canonical_orbitals> (1)
1057

>  <i_j_Geometry_convergence_category> (1)
3

>  <r_j_Gas_Phase_Energy> (1)
-1022.5590031594

>  <r_j_Final_Energy> (1)
-1022.5590031594

>  <r_j_HOMO> (1)
-0.270452529742119

>  <r_j_LUMO> (1)
-0.0225527534787672

>  <r_j_Polarizability> (1)
315.751925392416

>  <r_j_QM_Dipole_(debye)> (1)
0.11310146689686

>  <r_j_QM_Dipole_X_(debye)> (1)
0.00750912231328436

>  <r_j_QM_Dipole_Y_(debye)> (1)
-0.11221440662692

>  <r_j_QM_Dipole_Z_(debye)> (1)
0.0119783906128447

>  <r_j_Lowest_Frequency_(cm-1)> (1)
19.3885635749576

>  <r_j_Highest_Frequency_(cm-1)> (1)
3044.5387542058

>  <r_j_2nd_Lowest_Frequency_(cm-1)> (1)
28.2525022731298

>  <i_j_Num_Negative_Frequencies> (1)
0

>  <r_j_Zero_Point_Energy_(kcal/mol)> (1)
463.779108186202

>  <r_j_Entropy_(cal/mol/K)_298.15K_1.00E+00atm> (1)
186.162808218466

>  <r_j_Enthalpy_(kcal/mol)_298.15K_1.00E+00atm> (1)
19.3006671252082

>  <r_j_Free_Energy_(kcal/mol)_298.15K_1.00E+00atm> (1)
-36.2037741451273

>  <r_j_Internal_Energy_(kcal/mol)_298.15K_1.00E+00atm> (1)
18.7081815363809

>  <r_j_Heat_Capacity_(cal/mol/K)_298.15K_1.00E+00atm> (1)
117.908950007867

>  <r_j_ln(Q)_298.15K_1.00E+00atm> (1)
61.1049025121213

>  <r_j_Total_Internal_Energy_(au)_298.15K_1.00E+00atm> (1)
-1021.79011071588

>  <r_j_Total_Enthalpy_(au)_298.15K_1.00E+00atm> (1)
-1021.78916652999

>  <r_j_Total_Free_Energy_(au)_298.15K_1.00E+00atm> (1)
-1021.87761848796

>  <r_lp_tautomer_probability> (1)
1

>  <r_epik_Ionization_Penalty> (1)
  0.0000

>  <r_epik_Ionization_Penalty_Charging> (1)
  0.0000

>  <r_epik_Ionization_Penalty_Neutral> (1)
  0.0000

>  <r_epik_State_Penalty> (1)
  0.0000

>  <r_epik_Charging_Adjusted_Penalty> (1)
0

>  <i_epik_Tot_Q> (1)
0

>  <i_epik_Tot_abs_Q> (1)
0

>  <s_lp_Force_Field> (1)
S-OPLS

>  <r_lp_Energy> (1)
19.440924

>  <b_lp_Chiralities_Consistent> (1)
1

$$$$
