20615_1,1,3-trimethylcyclopentane
                    3D
 Schrodinger Suite 2021-3.
 24 24  0  0  1  0            999 V2000
   -0.0578    0.1416   -0.0486 C   0  0  0  0  0  0
    1.4568   -0.0453    0.0577 C   0  0  0  0  0  0
    2.2405    0.4306   -1.2082 C   0  0  0  0  0  0
    3.3364    1.3970   -0.6984 C   0  0  0  0  0  0
    3.5423    1.0451    0.7955 C   0  0  0  0  0  0
    2.0904    0.7406    1.2283 C   0  0  0  0  0  0
    4.4314   -0.2052    0.9411 C   0  0  0  0  0  0
    4.1584    2.2023    1.5894 C   0  0  0  0  0  0
   -0.3063    1.1964   -0.2184 H   0  0  0  0  0  0
   -0.5655   -0.1768    0.8690 H   0  0  0  0  0  0
   -0.4750   -0.4371   -0.8801 H   0  0  0  0  0  0
    1.6536   -1.1139    0.2104 H   0  0  0  0  0  0
    2.6806   -0.4247   -1.7314 H   0  0  0  0  0  0
    1.5766    0.9240   -1.9265 H   0  0  0  0  0  0
    4.2666    1.3364   -1.2746 H   0  0  0  0  0  0
    2.9832    2.4333   -0.7717 H   0  0  0  0  0  0
    1.5533    1.6903    1.3639 H   0  0  0  0  0  0
    2.0337    0.2023    2.1816 H   0  0  0  0  0  0
    4.5017   -0.5137    1.9906 H   0  0  0  0  0  0
    5.4468   -0.0018    0.5824 H   0  0  0  0  0  0
    4.0441   -1.0552    0.3705 H   0  0  0  0  0  0
    4.2481    1.9491    2.6522 H   0  0  0  0  0  0
    3.5441    3.1066    1.5104 H   0  0  0  0  0  0
    5.1620    2.4445    1.2207 H   0  0  0  0  0  0
  1  2  1  0  0  0
  1  9  1  0  0  0
  1 10  1  0  0  0
  1 11  1  0  0  0
  2  6  1  0  0  0
  2  3  1  0  0  0
  2 12  1  0  0  0
  3  4  1  0  0  0
  3 13  1  0  0  0
  3 14  1  0  0  0
  4  5  1  0  0  0
  4 15  1  0  0  0
  4 16  1  0  0  0
  5  6  1  0  0  0
  5  7  1  0  0  0
  5  8  1  0  0  0
  6 17  1  0  0  0
  6 18  1  0  0  0
  7 19  1  0  0  0
  7 20  1  0  0  0
  7 21  1  0  0  0
  8 22  1  0  0  0
  8 23  1  0  0  0
  8 24  1  0  0  0
M  END
>  <i_m_Spin_multiplicity> (1)
1

>  <s_j_Task> (1)
Single Point

>  <s_j_QM_Method> (1)
DFT(b3lyp-d3)

>  <s_j_QM_Basis> (1)
cc-pvtz(-f)

>  <i_j_Number_of_canonical_orbitals> (1)
325

>  <i_j_Geometry_convergence_category> (1)
0

>  <r_j_Gas_Phase_Energy> (1)
-314.626675575706

>  <r_j_Final_Energy> (1)
-314.626675575706

>  <r_j_HOMO> (1)
-0.301688850412655

>  <r_j_LUMO> (1)
0.0253765086515096

>  <r_j_Polarizability> (1)
93.3464151408351

>  <r_j_QM_Dipole_(debye)> (1)
0.10066635091218

>  <r_j_QM_Dipole_X_(debye)> (1)
0.0219322029351851

>  <r_j_QM_Dipole_Y_(debye)> (1)
-0.0979057418494007

>  <r_j_QM_Dipole_Z_(debye)> (1)
-0.00819502247114105

>  <r_j_Lowest_Frequency_(cm-1)> (1)
105.721462390696

>  <r_j_Highest_Frequency_(cm-1)> (1)
3050.70952323623

>  <r_j_2nd_Lowest_Frequency_(cm-1)> (1)
185.63175174462

>  <i_j_Num_Negative_Frequencies> (1)
0

>  <r_j_Zero_Point_Energy_(kcal/mol)> (1)
140.50496379623

>  <r_j_Entropy_(cal/mol/K)_298.15K_1.00E+00atm> (1)
87.6161736504856

>  <r_j_Enthalpy_(kcal/mol)_298.15K_1.00E+00atm> (1)
5.96064721151135

>  <r_j_Free_Energy_(kcal/mol)_298.15K_1.00E+00atm> (1)
-20.1621149623809

>  <r_j_Internal_Energy_(kcal/mol)_298.15K_1.00E+00atm> (1)
5.36816162268407

>  <r_j_Heat_Capacity_(cal/mol/K)_298.15K_1.00E+00atm> (1)
34.773490637074

>  <r_j_ln(Q)_298.15K_1.00E+00atm> (1)
34.0297137054227

>  <r_j_Total_Internal_Energy_(au)_298.15K_1.00E+00atm> (1)
-314.394211951821

>  <r_j_Total_Enthalpy_(au)_298.15K_1.00E+00atm> (1)
-314.393267765928

>  <r_j_Total_Free_Energy_(au)_298.15K_1.00E+00atm> (1)
-314.434897037553

>  <r_lp_tautomer_probability> (1)
1

>  <r_epik_Ionization_Penalty> (1)
  0.0000

>  <r_epik_Ionization_Penalty_Charging> (1)
  0.0000

>  <r_epik_Ionization_Penalty_Neutral> (1)
  0.0000

>  <r_epik_State_Penalty> (1)
  0.0000

>  <r_epik_Charging_Adjusted_Penalty> (1)
0

>  <i_epik_Tot_Q> (1)
0

>  <i_epik_Tot_abs_Q> (1)
0

>  <s_lp_Force_Field> (1)
S-OPLS

>  <r_lp_Energy> (1)
1.83896

>  <b_lp_Chiralities_Consistent> (1)
1

$$$$
