20758369_Secodehydroabietic acid
                    3D
 Schrodinger Suite 2021-3.
 51 52  0  0  1  0            999 V2000
   -2.9475    0.5927    0.5364 C   0  0  0  0  0  0
   -2.1664    1.4819   -0.4463 C   0  0  0  0  0  0
   -2.7304    2.9134   -0.3886 C   0  0  0  0  0  0
   -2.0111    3.8579   -1.3531 C   0  0  0  0  0  0
   -0.5065    3.8466   -1.0699 C   0  0  0  0  0  0
    0.1475    2.4443   -1.1402 C   0  0  0  0  0  0
   -0.6286    1.4662   -0.2008 C   0  0  0  0  0  0
   -0.1086    0.0108   -0.2472 C   0  0  0  0  0  0
    1.4064   -0.1928   -0.0220 C   0  0  0  0  0  0
    1.7457   -1.6633   -0.0236 C   0  0  0  0  0  0
    1.9010   -2.3852    1.1646 C   0  0  0  0  0  0
    2.1605   -3.7633    1.1740 C   0  0  0  0  0  0
    2.2656   -4.4287   -0.0507 C   0  0  0  0  0  0
    2.1178   -3.7284   -1.2503 C   0  0  0  0  0  0
    1.8613   -2.3606   -1.2371 C   0  0  0  0  0  0
    2.3401   -4.5213    2.4830 C   0  0  0  0  0  0
    1.0990   -4.4147    3.3874 C   0  0  0  0  0  0
    3.6040   -4.0585    3.2305 C   0  0  0  0  0  0
    0.1976    1.9504   -2.5936 C   0  0  0  0  0  0
    1.6254    2.6711   -0.5723 C   0  0  0  0  0  0
    1.6792    2.9135    0.6611 O   0  0  0  0  0  0
    2.5594    2.5997   -1.4083 O   0  5  0  0  0  0
   -2.6964    0.8537    1.5726 H   0  0  0  0  0  0
   -2.7364   -0.4715    0.4017 H   0  0  0  0  0  0
   -4.0293    0.7312    0.4117 H   0  0  0  0  0  0
   -2.3513    1.0963   -1.4622 H   0  0  0  0  0  0
   -3.8109    2.8920   -0.5953 H   0  0  0  0  0  0
   -2.6161    3.2931    0.6386 H   0  0  0  0  0  0
   -2.2101    3.5418   -2.3871 H   0  0  0  0  0  0
   -2.4146    4.8767   -1.2591 H   0  0  0  0  0  0
    0.0213    4.5152   -1.7631 H   0  0  0  0  0  0
   -0.3246    4.2318   -0.0590 H   0  0  0  0  0  0
   -0.4432    1.8517    0.8114 H   0  0  0  0  0  0
   -0.6271   -0.5786    0.5192 H   0  0  0  0  0  0
   -0.3869   -0.4481   -1.2077 H   0  0  0  0  0  0
    1.9767    0.3228   -0.7995 H   0  0  0  0  0  0
    1.6955    0.2853    0.9183 H   0  0  0  0  0  0
    1.8178   -1.8466    2.1060 H   0  0  0  0  0  0
    2.4680   -5.4980   -0.0655 H   0  0  0  0  0  0
    2.2072   -4.2557   -2.1975 H   0  0  0  0  0  0
    1.7495   -1.8133   -2.1698 H   0  0  0  0  0  0
    2.4742   -5.5826    2.2307 H   0  0  0  0  0  0
    0.2025   -4.7648    2.8663 H   0  0  0  0  0  0
    0.9216   -3.3778    3.6916 H   0  0  0  0  0  0
    1.2256   -5.0129    4.2980 H   0  0  0  0  0  0
    4.4939   -4.1728    2.6036 H   0  0  0  0  0  0
    3.7518   -4.6367    4.1507 H   0  0  0  0  0  0
    3.5266   -3.0013    3.5049 H   0  0  0  0  0  0
   -0.8002    1.8244   -3.0366 H   0  0  0  0  0  0
    0.7229    0.9947   -2.6716 H   0  0  0  0  0  0
    0.7693    2.6602   -3.1957 H   0  0  0  0  0  0
  1  2  1  0  0  0
  1 23  1  0  0  0
  1 24  1  0  0  0
  1 25  1  0  0  0
  2  7  1  0  0  0
  2  3  1  0  0  0
  2 26  1  0  0  0
  3  4  1  0  0  0
  3 27  1  0  0  0
  3 28  1  0  0  0
  4  5  1  0  0  0
  4 29  1  0  0  0
  4 30  1  0  0  0
  5  6  1  0  0  0
  5 31  1  0  0  0
  5 32  1  0  0  0
  6  7  1  0  0  0
  6 19  1  0  0  0
  6 20  1  0  0  0
  7  8  1  0  0  0
  7 33  1  0  0  0
  8  9  1  0  0  0
  8 34  1  0  0  0
  8 35  1  0  0  0
  9 10  1  0  0  0
  9 36  1  0  0  0
  9 37  1  0  0  0
 10 15  1  0  0  0
 10 11  2  0  0  0
 11 12  1  0  0  0
 11 38  1  0  0  0
 12 13  2  0  0  0
 12 16  1  0  0  0
 13 14  1  0  0  0
 13 39  1  0  0  0
 14 15  2  0  0  0
 14 40  1  0  0  0
 15 41  1  0  0  0
 16 17  1  0  0  0
 16 18  1  0  0  0
 16 42  1  0  0  0
 17 43  1  0  0  0
 17 44  1  0  0  0
 17 45  1  0  0  0
 18 46  1  0  0  0
 18 47  1  0  0  0
 18 48  1  0  0  0
 19 49  1  0  0  0
 19 50  1  0  0  0
 19 51  1  0  0  0
 20 21  2  0  0  0
 20 22  1  0  0  0
M  END
>  <i_m_Spin_multiplicity> (1)
1

>  <s_j_Task> (1)
Single Point

>  <s_j_QM_Method> (1)
DFT(b3lyp-d3)

>  <s_j_QM_Basis> (1)
cc-pvtz(-f)

>  <i_j_Number_of_canonical_orbitals> (1)
752

>  <i_j_Geometry_convergence_category> (1)
3

>  <r_j_Gas_Phase_Energy> (1)
-930.494948964971

>  <r_j_Final_Energy> (1)
-930.494948964971

>  <r_j_HOMO> (1)
-0.0403295250022744

>  <r_j_LUMO> (1)
0.0634257850388597

>  <r_j_Polarizability> (1)
242.58464185399

>  <r_j_QM_Dipole_(debye)> (1)
11.4920006656389

>  <r_j_QM_Dipole_X_(debye)> (1)
-4.47592729423717

>  <r_j_QM_Dipole_Y_(debye)> (1)
-10.387337709551

>  <r_j_QM_Dipole_Z_(debye)> (1)
2.03356078431106

>  <r_j_Lowest_Frequency_(cm-1)> (1)
36.6410180245479

>  <r_j_Highest_Frequency_(cm-1)> (1)
3127.49925240545

>  <r_j_2nd_Lowest_Frequency_(cm-1)> (1)
52.6745434731039

>  <i_j_Num_Negative_Frequencies> (1)
0

>  <r_j_Zero_Point_Energy_(kcal/mol)> (1)
281.663303876086

>  <r_j_Entropy_(cal/mol/K)_298.15K_1.00E+00atm> (1)
145.125637688373

>  <r_j_Enthalpy_(kcal/mol)_298.15K_1.00E+00atm> (1)
13.8141679595521

>  <r_j_Free_Energy_(kcal/mol)_298.15K_1.00E+00atm> (1)
-29.4550409172362

>  <r_j_Internal_Energy_(kcal/mol)_298.15K_1.00E+00atm> (1)
13.2216823707249

>  <r_j_Heat_Capacity_(cal/mol/K)_298.15K_1.00E+00atm> (1)
86.2999087858687

>  <r_j_ln(Q)_298.15K_1.00E+00atm> (1)
49.7143584125607

>  <r_j_Total_Internal_Energy_(au)_298.15K_1.00E+00atm> (1)
-930.025019823907

>  <r_j_Total_Enthalpy_(au)_298.15K_1.00E+00atm> (1)
-930.024075638014

>  <r_j_Total_Free_Energy_(au)_298.15K_1.00E+00atm> (1)
-930.093029511932

>  <r_epik_Ionization_Penalty> (1)
  0.0054

>  <r_epik_Ionization_Penalty_Charging> (1)
  0.0054

>  <r_epik_Ionization_Penalty_Neutral> (1)
  0.0000

>  <r_epik_State_Penalty> (1)
  0.0039

>  <r_epik_Charging_Adjusted_Penalty> (1)
0.00934925252590984

>  <i_epik_Tot_Q> (1)
-1

>  <i_epik_Tot_abs_Q> (1)
1

>  <s_lp_Force_Field> (1)
S-OPLS

>  <r_lp_Energy> (1)
42.13192

>  <b_lp_Chiralities_Consistent> (1)
1

$$$$
