20832_1,3-dimethyl-4-isopropylbenzene
                    3D
 Schrodinger Suite 2021-3.
 27 27  0  0  1  0            999 V2000
   -4.3585    0.0285    0.0720 C   0  0  0  0  0  0
   -2.8479    0.0134    0.0460 C   0  0  0  0  0  0
   -2.1068    1.1972    0.0295 C   0  0  0  0  0  0
   -0.7069    1.2105    0.0010 C   0  0  0  0  0  0
   -0.0066   -0.0136   -0.0195 C   0  0  0  0  0  0
   -0.7510   -1.2000    0.0053 C   0  0  0  0  0  0
   -2.1428   -1.1936    0.0375 C   0  0  0  0  0  0
    1.5186   -0.0486   -0.0092 C   0  0  0  0  0  0
    2.1173   -1.2101   -0.8189 C   0  0  0  0  0  0
    2.0433   -0.0737    1.4409 C   0  0  0  0  0  0
    0.0151    2.5407   -0.0127 C   0  0  0  0  0  0
   -4.7511    1.0493    0.0811 H   0  0  0  0  0  0
   -4.7464   -0.4871    0.9583 H   0  0  0  0  0  0
   -4.7760   -0.4820   -0.8039 H   0  0  0  0  0  0
   -2.6366    2.1477    0.0386 H   0  0  0  0  0  0
   -0.2355   -2.1554   -0.0016 H   0  0  0  0  0  0
   -2.6855   -2.1360    0.0537 H   0  0  0  0  0  0
    1.8789    0.8767   -0.4736 H   0  0  0  0  0  0
    1.7130   -1.2375   -1.8355 H   0  0  0  0  0  0
    1.9173   -2.1795   -0.3504 H   0  0  0  0  0  0
    3.2053   -1.1032   -0.8847 H   0  0  0  0  0  0
    1.6624    0.7731    2.0204 H   0  0  0  0  0  0
    3.1384   -0.0396    1.4643 H   0  0  0  0  0  0
    1.7196   -0.9911    1.9449 H   0  0  0  0  0  0
    0.7299    2.6288    0.8128 H   0  0  0  0  0  0
   -0.6925    3.3696    0.0730 H   0  0  0  0  0  0
    0.5808    2.6859   -0.9408 H   0  0  0  0  0  0
  1  2  1  0  0  0
  1 12  1  0  0  0
  1 13  1  0  0  0
  1 14  1  0  0  0
  2  7  1  0  0  0
  2  3  2  0  0  0
  3  4  1  0  0  0
  3 15  1  0  0  0
  4  5  2  0  0  0
  4 11  1  0  0  0
  5  6  1  0  0  0
  5  8  1  0  0  0
  6  7  2  0  0  0
  6 16  1  0  0  0
  7 17  1  0  0  0
  8  9  1  0  0  0
  8 10  1  0  0  0
  8 18  1  0  0  0
  9 19  1  0  0  0
  9 20  1  0  0  0
  9 21  1  0  0  0
 10 22  1  0  0  0
 10 23  1  0  0  0
 10 24  1  0  0  0
 11 25  1  0  0  0
 11 26  1  0  0  0
 11 27  1  0  0  0
M  END
>  <i_m_Spin_multiplicity> (1)
1

>  <s_j_Task> (1)
Single Point

>  <s_j_QM_Method> (1)
DFT(b3lyp-d3)

>  <s_j_QM_Basis> (1)
cc-pvtz(-f)

>  <i_j_Number_of_canonical_orbitals> (1)
389

>  <i_j_Geometry_convergence_category> (1)
3

>  <r_j_Gas_Phase_Energy> (1)
-428.984916518262

>  <r_j_Final_Energy> (1)
-428.984916518262

>  <r_j_HOMO> (1)
-0.229278795043632

>  <r_j_LUMO> (1)
-0.00620373629825217

>  <r_j_Polarizability> (1)
128.683684048315

>  <r_j_QM_Dipole_(debye)> (1)
0.327464320681524

>  <r_j_QM_Dipole_X_(debye)> (1)
0.175899871791911

>  <r_j_QM_Dipole_Y_(debye)> (1)
0.275888176727121

>  <r_j_QM_Dipole_Z_(debye)> (1)
-0.0133353052153396

>  <r_j_Lowest_Frequency_(cm-1)> (1)
82.6099833857643

>  <r_j_Highest_Frequency_(cm-1)> (1)
3139.39564908965

>  <r_j_2nd_Lowest_Frequency_(cm-1)> (1)
103.07933384621

>  <i_j_Num_Negative_Frequencies> (1)
0

>  <r_j_Zero_Point_Energy_(kcal/mol)> (1)
150.311394007462

>  <r_j_Entropy_(cal/mol/K)_298.15K_1.00E+00atm> (1)
100.804335863451

>  <r_j_Enthalpy_(kcal/mol)_298.15K_1.00E+00atm> (1)
7.6281217674342

>  <r_j_Free_Energy_(kcal/mol)_298.15K_1.00E+00atm> (1)
-22.4266909702537

>  <r_j_Internal_Energy_(kcal/mol)_298.15K_1.00E+00atm> (1)
7.03563617860692

>  <r_j_Heat_Capacity_(cal/mol/K)_298.15K_1.00E+00atm> (1)
44.4982679567786

>  <r_j_ln(Q)_298.15K_1.00E+00atm> (1)
37.8518758821519

>  <r_j_Total_Internal_Energy_(au)_298.15K_1.00E+00atm> (1)
-428.734168063125

>  <r_j_Total_Enthalpy_(au)_298.15K_1.00E+00atm> (1)
-428.733223877233

>  <r_j_Total_Free_Energy_(au)_298.15K_1.00E+00atm> (1)
-428.78111927033

>  <r_lp_tautomer_probability> (1)
1

>  <r_epik_Ionization_Penalty> (1)
  0.0000

>  <r_epik_Ionization_Penalty_Charging> (1)
  0.0000

>  <r_epik_Ionization_Penalty_Neutral> (1)
  0.0000

>  <r_epik_State_Penalty> (1)
  0.0000

>  <r_epik_Charging_Adjusted_Penalty> (1)
0

>  <i_epik_Tot_Q> (1)
0

>  <i_epik_Tot_abs_Q> (1)
0

>  <s_lp_Force_Field> (1)
S-OPLS

>  <r_lp_Energy> (1)
10.001

>  <b_lp_Chiralities_Consistent> (1)
1

$$$$
