2087_Aldrin
                    3D
 Schrodinger Suite 2021-3.
 26 29  0  0  1  0            999 V2000
    0.3371   -2.0914    2.2899 C   0  0  0  0  0  0
    1.4506   -1.5787    1.3248 C   0  0  0  0  0  0
    1.2807   -2.5886    0.2087 C   0  0  0  0  0  0
   -0.0204   -2.8918    0.1220 C   0  0  0  0  0  0
   -0.7567   -2.0928    1.1775 C   0  0  0  0  0  0
   -0.7347   -0.5460    0.8905 C   0  0  0  0  0  0
    0.7866   -0.1919    0.9920 C   0  0  0  0  0  0
    1.0113    0.7380   -0.2493 C   0  0  0  0  0  0
    0.2169    1.9963    0.1801 C   0  0  0  0  0  0
   -1.0871    1.6933    0.0932 C   0  0  0  0  0  0
   -1.1871    0.2273   -0.3959 C   0  0  0  0  0  0
    0.0316    0.2755   -1.3932 C   0  0  0  0  0  0
   -0.1785    1.5571   -2.6777 Cl  0  0  0  0  0  0
    0.4301   -1.1808   -2.3322 Cl  0  0  0  0  0  0
   -2.7421   -0.2907   -1.0793 Cl  0  0  0  0  0  0
   -2.4357    2.6343    0.5773 Cl  0  0  0  0  0  0
    0.9420    3.4195    0.8023 Cl  0  0  0  0  0  0
    2.7082    0.9758   -0.7154 Cl  0  0  0  0  0  0
    0.1245   -1.4190    3.1294 H   0  0  0  0  0  0
    0.5452   -3.0937    2.6705 H   0  0  0  0  0  0
    2.4569   -1.4747    1.7325 H   0  0  0  0  0  0
    2.0721   -2.8971   -0.4622 H   0  0  0  0  0  0
   -0.5037   -3.4976   -0.6339 H   0  0  0  0  0  0
   -1.7485   -2.4545    1.4520 H   0  0  0  0  0  0
   -1.3073   -0.0907    1.7027 H   0  0  0  0  0  0
    0.9930    0.4450    1.8560 H   0  0  0  0  0  0
  1  5  1  0  0  0
  1  2  1  0  0  0
  1 19  1  0  0  0
  1 20  1  0  0  0
  2  7  1  0  0  0
  2  3  1  0  0  0
  2 21  1  0  0  0
  3  4  2  0  0  0
  3 22  1  0  0  0
  4  5  1  0  0  0
  4 23  1  0  0  0
  5  6  1  0  0  0
  5 24  1  0  0  0
  6 11  1  0  0  0
  6  7  1  0  0  0
  6 25  1  0  0  0
  7  8  1  0  0  0
  7 26  1  0  0  0
  8 12  1  0  0  0
  8  9  1  0  0  0
  8 18  1  0  0  0
  9 10  2  0  0  0
  9 17  1  0  0  0
 10 11  1  0  0  0
 10 16  1  0  0  0
 11 12  1  0  0  0
 11 15  1  0  0  0
 12 13  1  0  0  0
 12 14  1  0  0  0
M  END
>  <i_m_Spin_multiplicity> (1)
1

>  <s_j_Task> (1)
Single Point

>  <s_j_QM_Method> (1)
DFT(b3lyp-d3)

>  <s_j_QM_Basis> (1)
cc-pvtz(-f)

>  <i_j_Number_of_canonical_orbitals> (1)
503

>  <i_j_Geometry_convergence_category> (1)
3

>  <r_j_Gas_Phase_Energy> (1)
-3223.53434284087

>  <r_j_Final_Energy> (1)
-3223.53434284087

>  <r_j_HOMO> (1)
-0.24910007813144

>  <r_j_LUMO> (1)
-0.0398645580303573

>  <r_j_Polarizability> (1)
190.190530404938

>  <r_j_QM_Dipole_(debye)> (1)
3.39975295790435

>  <r_j_QM_Dipole_X_(debye)> (1)
0.199106650231144

>  <r_j_QM_Dipole_Y_(debye)> (1)
-1.69696854722581

>  <r_j_QM_Dipole_Z_(debye)> (1)
2.93921323934475

>  <r_j_Lowest_Frequency_(cm-1)> (1)
77.9609540317047

>  <r_j_Highest_Frequency_(cm-1)> (1)
3181.44547597061

>  <r_j_2nd_Lowest_Frequency_(cm-1)> (1)
88.17720711733

>  <i_j_Num_Negative_Frequencies> (1)
0

>  <r_j_Zero_Point_Energy_(kcal/mol)> (1)
106.54584487467

>  <r_j_Entropy_(cal/mol/K)_298.15K_1.00E+00atm> (1)
125.12268137867

>  <r_j_Enthalpy_(kcal/mol)_298.15K_1.00E+00atm> (1)
10.379507148304

>  <r_j_Free_Energy_(kcal/mol)_298.15K_1.00E+00atm> (1)
-26.9258203047465

>  <r_j_Internal_Energy_(kcal/mol)_298.15K_1.00E+00atm> (1)
9.78702155947672

>  <r_j_Heat_Capacity_(cal/mol/K)_298.15K_1.00E+00atm> (1)
60.2081011735395

>  <r_j_ln(Q)_298.15K_1.00E+00atm> (1)
45.4455278111349

>  <r_j_Total_Internal_Energy_(au)_298.15K_1.00E+00atm> (1)
-3223.34895461648

>  <r_j_Total_Enthalpy_(au)_298.15K_1.00E+00atm> (1)
-3223.34801043059

>  <r_j_Total_Free_Energy_(au)_298.15K_1.00E+00atm> (1)
-3223.40746025443

>  <r_lp_tautomer_probability> (1)
1

>  <r_epik_Ionization_Penalty> (1)
  0.0000

>  <r_epik_Ionization_Penalty_Charging> (1)
  0.0000

>  <r_epik_Ionization_Penalty_Neutral> (1)
  0.0000

>  <r_epik_State_Penalty> (1)
  0.0000

>  <r_epik_Charging_Adjusted_Penalty> (1)
0

>  <i_epik_Tot_Q> (1)
0

>  <i_epik_Tot_abs_Q> (1)
0

>  <s_lp_Force_Field> (1)
S-OPLS

>  <r_lp_Energy> (1)
82.037268

>  <b_lp_Chiralities_Consistent> (1)
1

$$$$
