20967_Dodecenal
                    3D
 Schrodinger Suite 2021-3.
 35 34  0  0  1  0            999 V2000
   -4.3897    2.7284   -0.1755 C   0  0  0  0  0  0
   -2.8708    2.8249   -0.0049 C   0  0  0  0  0  0
   -2.1624    1.4737   -0.1560 C   0  0  0  0  0  0
   -0.6423    1.5623    0.0197 C   0  0  0  0  0  0
    0.0628    0.2070   -0.1207 C   0  0  0  0  0  0
    1.5946    0.2741   -0.0210 C   0  0  0  0  0  0
    2.1168    0.7307    1.3473 C   0  0  0  0  0  0
    3.6457    0.7021    1.4443 C   0  0  0  0  0  0
    4.1615    1.1796    2.8172 C   0  0  0  0  0  0
    5.6520    1.0999    2.9243 C   0  0  0  0  0  0
    6.4845    2.1336    3.1209 C   0  0  0  0  0  0
    7.9402    1.9445    3.1866 C   0  0  0  0  0  0
    8.7428    2.8429    3.3620 O   0  0  0  0  0  0
   -4.8706    3.7056   -0.0633 H   0  0  0  0  0  0
   -4.8275    2.0535    0.5689 H   0  0  0  0  0  0
   -4.6511    2.3395   -1.1664 H   0  0  0  0  0  0
   -2.4613    3.5314   -0.7398 H   0  0  0  0  0  0
   -2.6374    3.2461    0.9826 H   0  0  0  0  0  0
   -2.5725    0.7651    0.5781 H   0  0  0  0  0  0
   -2.3923    1.0509   -1.1446 H   0  0  0  0  0  0
   -0.2296    2.2630   -0.7206 H   0  0  0  0  0  0
   -0.4247    1.9980    1.0037 H   0  0  0  0  0  0
   -0.3202   -0.4817    0.6460 H   0  0  0  0  0  0
   -0.2101   -0.2353   -1.0881 H   0  0  0  0  0  0
    2.0103   -0.7176   -0.2451 H   0  0  0  0  0  0
    1.9808    0.9484   -0.7986 H   0  0  0  0  0  0
    1.7659    1.7480    1.5622 H   0  0  0  0  0  0
    1.6904    0.0885    2.1315 H   0  0  0  0  0  0
    4.0085   -0.3172    1.2528 H   0  0  0  0  0  0
    4.0796    1.3348    0.6594 H   0  0  0  0  0  0
    3.8232    2.2053    3.0061 H   0  0  0  0  0  0
    3.7126    0.5475    3.5976 H   0  0  0  0  0  0
    6.0852    0.1033    2.8103 H   0  0  0  0  0  0
    6.1198    3.1519    3.2381 H   0  0  0  0  0  0
    8.2783    0.8890    3.0606 H   0  0  0  0  0  0
  1  2  1  0  0  0
  1 14  1  0  0  0
  1 15  1  0  0  0
  1 16  1  0  0  0
  2  3  1  0  0  0
  2 17  1  0  0  0
  2 18  1  0  0  0
  3  4  1  0  0  0
  3 19  1  0  0  0
  3 20  1  0  0  0
  4  5  1  0  0  0
  4 21  1  0  0  0
  4 22  1  0  0  0
  5  6  1  0  0  0
  5 23  1  0  0  0
  5 24  1  0  0  0
  6  7  1  0  0  0
  6 25  1  0  0  0
  6 26  1  0  0  0
  7  8  1  0  0  0
  7 27  1  0  0  0
  7 28  1  0  0  0
  8  9  1  0  0  0
  8 29  1  0  0  0
  8 30  1  0  0  0
  9 10  1  0  0  0
  9 31  1  0  0  0
  9 32  1  0  0  0
 10 11  2  0  0  0
 10 33  1  0  0  0
 11 12  1  0  0  0
 11 34  1  0  0  0
 12 13  2  0  0  0
 12 35  1  0  0  0
M  END
>  <i_m_Spin_multiplicity> (1)
1

>  <s_j_Task> (1)
Single Point

>  <s_j_QM_Method> (1)
DFT(b3lyp-d3)

>  <s_j_QM_Basis> (1)
cc-pvtz(-f)

>  <i_j_Number_of_canonical_orbitals> (1)
493

>  <i_j_Geometry_convergence_category> (1)
3

>  <r_j_Gas_Phase_Energy> (1)
-545.957559006126

>  <r_j_Final_Energy> (1)
-545.957559006126

>  <r_j_HOMO> (1)
-0.263240731826543

>  <r_j_LUMO> (1)
-0.0713038592011724

>  <r_j_Polarizability> (1)
155.07059354807

>  <r_j_QM_Dipole_(debye)> (1)
4.40483022402805

>  <r_j_QM_Dipole_X_(debye)> (1)
-3.73774777130482

>  <r_j_QM_Dipole_Y_(debye)> (1)
-2.18151453668323

>  <r_j_QM_Dipole_Z_(debye)> (1)
-0.820222669070145

>  <r_j_Lowest_Frequency_(cm-1)> (1)
39.2584954821375

>  <r_j_Highest_Frequency_(cm-1)> (1)
3121.44167408705

>  <r_j_2nd_Lowest_Frequency_(cm-1)> (1)
64.1568532855109

>  <i_j_Num_Negative_Frequencies> (1)
0

>  <r_j_Zero_Point_Energy_(kcal/mol)> (1)
199.222725380682

>  <r_j_Entropy_(cal/mol/K)_298.15K_1.00E+00atm> (1)
121.780860256262

>  <r_j_Enthalpy_(kcal/mol)_298.15K_1.00E+00atm> (1)
10.095919455444

>  <r_j_Free_Energy_(kcal/mol)_298.15K_1.00E+00atm> (1)
-26.2130440299604

>  <r_j_Internal_Energy_(kcal/mol)_298.15K_1.00E+00atm> (1)
9.50343386661675

>  <r_j_Heat_Capacity_(cal/mol/K)_298.15K_1.00E+00atm> (1)
56.5388359850711

>  <r_j_ln(Q)_298.15K_1.00E+00atm> (1)
44.2425006181917

>  <r_j_Total_Internal_Energy_(au)_298.15K_1.00E+00atm> (1)
-545.624932696522

>  <r_j_Total_Enthalpy_(au)_298.15K_1.00E+00atm> (1)
-545.62398851063

>  <r_j_Total_Free_Energy_(au)_298.15K_1.00E+00atm> (1)
-545.681850527414

>  <r_lp_tautomer_probability> (1)
1

>  <r_epik_Ionization_Penalty> (1)
  0.0000

>  <r_epik_Ionization_Penalty_Charging> (1)
  0.0000

>  <r_epik_Ionization_Penalty_Neutral> (1)
  0.0000

>  <r_epik_State_Penalty> (1)
  0.0000

>  <r_epik_Charging_Adjusted_Penalty> (1)
0

>  <i_epik_Tot_Q> (1)
0

>  <i_epik_Tot_abs_Q> (1)
0

>  <s_lp_Force_Field> (1)
S-OPLS

>  <r_lp_Energy> (1)
1.503789

>  <b_lp_Chiralities_Consistent> (1)
1

$$$$
