21502_2,7-dinitrofluorene
                    3D
 Schrodinger Suite 2021-3.
 27 29  0  0  1  0            999 V2000
   -3.0411   -2.3952   -0.0004 C   0  0  0  0  0  0
   -2.0726   -1.2322   -0.0004 C   0  0  0  0  0  0
   -2.7798   -0.0109   -0.0005 C   0  0  0  0  0  0
   -2.1009    1.2110   -0.0003 C   0  0  0  0  0  0
   -0.7100    1.2083   -0.0001 C   0  0  0  0  0  0
   -0.0301   -0.0123    0.0000 C   0  0  0  0  0  0
   -0.6870   -1.2453   -0.0002 C   0  0  0  0  0  0
    1.4417    0.0016    0.0003 N   0  3  1  0  0  0
    2.0224   -1.0844    0.0007 O   0  0  0  0  0  0
    2.0053    1.0964    0.0003 O   0  5  0  0  0  0
   -4.2135   -0.3027   -0.0004 C   0  0  0  0  0  0
   -4.3871   -1.7032   -0.0004 C   0  0  0  0  0  0
   -5.6574   -2.2569   -0.0002 C   0  0  0  0  0  0
   -6.7438   -1.3786    0.0000 C   0  0  0  0  0  0
   -6.5952    0.0105    0.0000 C   0  0  0  0  0  0
   -5.3161    0.5566   -0.0002 C   0  0  0  0  0  0
   -8.1039   -1.9406    0.0003 N   0  3  1  0  0  0
   -9.0505   -1.1533    0.0001 O   0  0  0  0  0  0
   -8.2145   -3.1671    0.0007 O   0  5  0  0  0  0
   -2.9105   -3.0369    0.8796 H   0  0  0  0  0  0
   -2.9106   -3.0367   -0.8805 H   0  0  0  0  0  0
   -2.6437    2.1508   -0.0003 H   0  0  0  0  0  0
   -0.1400    2.1285    0.0001 H   0  0  0  0  0  0
   -0.1102   -2.1620   -0.0001 H   0  0  0  0  0  0
   -5.8301   -3.3261    0.0000 H   0  0  0  0  0  0
   -7.4797    0.6345    0.0002 H   0  0  0  0  0  0
   -5.1839    1.6338   -0.0001 H   0  0  0  0  0  0
  1 12  1  0  0  0
  1  2  1  0  0  0
  1 20  1  0  0  0
  1 21  1  0  0  0
  2  7  1  0  0  0
  2  3  2  0  0  0
  3  4  1  0  0  0
  3 11  1  0  0  0
  4  5  2  0  0  0
  4 22  1  0  0  0
  5  6  1  0  0  0
  5 23  1  0  0  0
  6  7  2  0  0  0
  6  8  1  0  0  0
  7 24  1  0  0  0
  8  9  2  0  0  0
  8 10  1  0  0  0
 11 16  1  0  0  0
 11 12  2  0  0  0
 12 13  1  0  0  0
 13 14  2  0  0  0
 13 25  1  0  0  0
 14 15  1  0  0  0
 14 17  1  0  0  0
 15 16  2  0  0  0
 15 26  1  0  0  0
 16 27  1  0  0  0
 17 18  2  0  0  0
 17 19  1  0  0  0
M  END
>  <i_m_Spin_multiplicity> (1)
1

>  <s_j_Task> (1)
Single Point

>  <s_j_QM_Method> (1)
DFT(b3lyp-d3)

>  <s_j_QM_Basis> (1)
cc-pvtz(-f)

>  <i_j_Number_of_canonical_orbitals> (1)
496

>  <i_j_Geometry_convergence_category> (1)
0

>  <r_j_Gas_Phase_Energy> (1)
-910.737128574652

>  <r_j_Final_Energy> (1)
-910.737128574652

>  <r_j_HOMO> (1)
-0.271814446302809

>  <r_j_LUMO> (1)
-0.126973652929168

>  <r_j_Polarizability> (1)
195.883029026756

>  <r_j_QM_Dipole_(debye)> (1)
1.0879073361682

>  <r_j_QM_Dipole_X_(debye)> (1)
-0.215950981112961

>  <r_j_QM_Dipole_Y_(debye)> (1)
1.06625789366195

>  <r_j_QM_Dipole_Z_(debye)> (1)
-0.00128454214562076

>  <r_j_Lowest_Frequency_(cm-1)> (1)
51.1486685163541

>  <r_j_Highest_Frequency_(cm-1)> (1)
3186.82602646336

>  <r_j_2nd_Lowest_Frequency_(cm-1)> (1)
89.6479208697276

>  <i_j_Num_Negative_Frequencies> (1)
0

>  <r_j_Zero_Point_Energy_(kcal/mol)> (1)
120.442549721679

>  <r_j_Entropy_(cal/mol/K)_298.15K_1.00E+00atm> (1)
115.640450979523

>  <r_j_Enthalpy_(kcal/mol)_298.15K_1.00E+00atm> (1)
9.12372279922201

>  <r_j_Free_Energy_(kcal/mol)_298.15K_1.00E+00atm> (1)
-25.3544776603229

>  <r_j_Internal_Energy_(kcal/mol)_298.15K_1.00E+00atm> (1)
8.53123721039474

>  <r_j_Heat_Capacity_(cal/mol/K)_298.15K_1.00E+00atm> (1)
54.6299615920457

>  <r_j_ln(Q)_298.15K_1.00E+00atm> (1)
42.7934082084728

>  <r_j_Total_Internal_Energy_(au)_298.15K_1.00E+00atm> (1)
-910.531595761048

>  <r_j_Total_Enthalpy_(au)_298.15K_1.00E+00atm> (1)
-910.530651575156

>  <r_j_Total_Free_Energy_(au)_298.15K_1.00E+00atm> (1)
-910.585596085331

>  <r_lp_tautomer_probability> (1)
1

>  <r_epik_Ionization_Penalty> (1)
  0.0000

>  <r_epik_Ionization_Penalty_Charging> (1)
  0.0000

>  <r_epik_Ionization_Penalty_Neutral> (1)
  0.0000

>  <r_epik_State_Penalty> (1)
  0.0000

>  <r_epik_Charging_Adjusted_Penalty> (1)
0

>  <i_epik_Tot_Q> (1)
0

>  <i_epik_Tot_abs_Q> (1)
4

>  <s_lp_Force_Field> (1)
S-OPLS

>  <r_lp_Energy> (1)
18.2804

>  <b_lp_Chiralities_Consistent> (1)
1

$$$$
