21694_1-nitropyrene
                    3D
 Schrodinger Suite 2021-3.
 28 31  0  0  1  0            999 V2000
   -4.3206    4.8448   -0.0001 C   0  0  0  0  0  0
   -4.9844    3.6204    0.0000 C   0  0  0  0  0  0
   -4.2687    2.4123    0.0000 C   0  0  0  0  0  0
   -2.8409    2.4440    0.0001 C   0  0  0  0  0  0
   -2.1752    3.7029    0.0001 C   0  0  0  0  0  0
   -2.9296    4.8878    0.0000 C   0  0  0  0  0  0
   -0.7464    3.7075    0.0001 C   0  0  0  0  0  0
   -0.0150    2.5587    0.0001 C   0  0  0  0  0  0
   -0.6476    1.2652    0.0000 C   0  0  0  0  0  0
    0.0212    0.0109    0.0000 C   0  0  0  0  0  0
   -0.6826   -1.1981    0.0000 C   0  0  0  0  0  0
   -2.0633   -1.2139    0.0000 C   0  0  0  0  0  0
   -2.7910   -0.0140    0.0000 C   0  0  0  0  0  0
   -2.0871    1.2293    0.0000 C   0  0  0  0  0  0
   -4.2248   -0.0172    0.0000 C   0  0  0  0  0  0
   -4.9339    1.1431    0.0000 C   0  0  0  0  0  0
    1.4891   -0.1298   -0.0001 N   0  3  1  0  0  0
    1.9515   -1.2741   -0.0001 O   0  0  0  0  0  0
    2.2014    0.8780    0.0000 O   0  5  0  0  0  0
   -4.8909    5.7686   -0.0001 H   0  0  0  0  0  0
   -6.0705    3.5890    0.0000 H   0  0  0  0  0  0
   -2.4115    5.8427   -0.0001 H   0  0  0  0  0  0
   -0.2338    4.6658    0.0001 H   0  0  0  0  0  0
    1.0608    2.6076    0.0001 H   0  0  0  0  0  0
   -0.1170   -2.1197    0.0000 H   0  0  0  0  0  0
   -2.5937   -2.1612    0.0000 H   0  0  0  0  0  0
   -4.7346   -0.9759    0.0000 H   0  0  0  0  0  0
   -6.0204    1.1261    0.0000 H   0  0  0  0  0  0
  1  6  1  0  0  0
  1  2  2  0  0  0
  1 20  1  0  0  0
  2  3  1  0  0  0
  2 21  1  0  0  0
  3 16  1  0  0  0
  3  4  2  0  0  0
  4 14  1  0  0  0
  4  5  1  0  0  0
  5  6  2  0  0  0
  5  7  1  0  0  0
  6 22  1  0  0  0
  7  8  2  0  0  0
  7 23  1  0  0  0
  8  9  1  0  0  0
  8 24  1  0  0  0
  9 14  1  0  0  0
  9 10  2  0  0  0
 10 11  1  0  0  0
 10 17  1  0  0  0
 11 12  2  0  0  0
 11 25  1  0  0  0
 12 13  1  0  0  0
 12 26  1  0  0  0
 13 14  2  0  0  0
 13 15  1  0  0  0
 15 16  2  0  0  0
 15 27  1  0  0  0
 16 28  1  0  0  0
 17 18  2  0  0  0
 17 19  1  0  0  0
M  END
>  <i_m_Spin_multiplicity> (1)
1

>  <s_j_Task> (1)
Single Point

>  <s_j_QM_Method> (1)
DFT(b3lyp-d3)

>  <s_j_QM_Basis> (1)
cc-pvtz(-f)

>  <i_j_Number_of_canonical_orbitals> (1)
501

>  <i_j_Geometry_convergence_category> (1)
0

>  <r_j_Gas_Phase_Energy> (1)
-820.539017631445

>  <r_j_Final_Energy> (1)
-820.539017631445

>  <r_j_HOMO> (1)
-0.217469277016164

>  <r_j_LUMO> (1)
-0.100792246459953

>  <r_j_Polarizability> (1)
216.101956961881

>  <r_j_QM_Dipole_(debye)> (1)
5.90635804598607

>  <r_j_QM_Dipole_X_(debye)> (1)
-5.62506166257567

>  <r_j_QM_Dipole_Y_(debye)> (1)
1.80104043807049

>  <r_j_QM_Dipole_Z_(debye)> (1)
6.37481243504056e-06

>  <r_j_Lowest_Frequency_(cm-1)> (1)
52.188281375685

>  <r_j_Highest_Frequency_(cm-1)> (1)
3241.55172869641

>  <r_j_2nd_Lowest_Frequency_(cm-1)> (1)
71.7741107648883

>  <i_j_Num_Negative_Frequencies> (1)
0

>  <r_j_Zero_Point_Energy_(kcal/mol)> (1)
131.168851938316

>  <r_j_Entropy_(cal/mol/K)_298.15K_1.00E+00atm> (1)
108.153553359002

>  <r_j_Enthalpy_(kcal/mol)_298.15K_1.00E+00atm> (1)
8.27143035245028

>  <r_j_Free_Energy_(kcal/mol)_298.15K_1.00E+00atm> (1)
-23.974551581536

>  <r_j_Internal_Energy_(kcal/mol)_298.15K_1.00E+00atm> (1)
7.67894476362301

>  <r_j_Heat_Capacity_(cal/mol/K)_298.15K_1.00E+00atm> (1)
52.4172864011471

>  <r_j_ln(Q)_298.15K_1.00E+00atm> (1)
40.464362397387

>  <r_j_Total_Internal_Energy_(au)_298.15K_1.00E+00atm> (1)
-820.317749581575

>  <r_j_Total_Enthalpy_(au)_298.15K_1.00E+00atm> (1)
-820.316805395682

>  <r_j_Total_Free_Energy_(au)_298.15K_1.00E+00atm> (1)
-820.368192639183

>  <r_lp_tautomer_probability> (1)
1

>  <r_epik_Ionization_Penalty> (1)
  0.0000

>  <r_epik_Ionization_Penalty_Charging> (1)
  0.0000

>  <r_epik_Ionization_Penalty_Neutral> (1)
  0.0000

>  <r_epik_State_Penalty> (1)
  0.0000

>  <r_epik_Charging_Adjusted_Penalty> (1)
0

>  <i_epik_Tot_Q> (1)
0

>  <i_epik_Tot_abs_Q> (1)
2

>  <s_lp_Force_Field> (1)
S-OPLS

>  <r_lp_Energy> (1)
46.9183

>  <b_lp_Chiralities_Consistent> (1)
1

$$$$
