21771602_20S-13B(H),17a(H)-diacholestane
                    3D
 Schrodinger Suite 2021-3.
 75 78  0  0  1  0            999 V2000
   -2.8227    0.4522   -1.3827 C   0  0  0  0  0  0
   -2.0192    1.5336   -0.6454 C   0  0  0  0  0  0
   -2.4196    2.9306   -1.1409 C   0  0  0  0  0  0
   -0.4988    1.3290   -0.7818 C   0  0  0  0  0  0
    0.0310   -0.0036   -0.2357 C   0  0  0  0  0  0
    1.5654   -0.0577   -0.2234 C   0  0  0  0  0  0
    2.1641   -1.4508    0.0466 C   0  0  0  0  0  0
    1.6134   -2.0551    1.3487 C   0  0  0  0  0  0
    3.7139   -1.4644    0.0701 C   0  0  0  0  0  0
    4.2742   -2.9257   -0.0394 C   0  0  0  0  0  0
    5.1702   -2.9512   -1.2994 C   0  0  0  0  0  0
    5.6976   -1.5039   -1.4161 C   0  0  0  0  0  0
    4.4024   -0.7138   -1.0993 C   0  0  0  0  0  0
    4.6693    0.7948   -0.9663 C   0  0  0  0  0  0
    5.7459    1.2806   -1.9763 C   0  0  0  0  0  0
    5.8570    0.3898   -3.2327 C   0  0  0  0  0  0
    6.3185   -1.0522   -2.7958 C   0  0  0  0  0  0
    6.2018   -2.0659   -3.9560 C   0  0  0  0  0  0
    4.8837   -1.9798   -4.7333 C   0  0  0  0  0  0
    4.6280   -0.5715   -5.3127 C   0  0  0  0  0  0
    4.5818    0.4344   -4.1222 C   0  0  0  0  0  0
    4.2119    1.8518   -4.6043 C   0  0  0  0  0  0
    2.8545    1.8521   -5.3287 C   0  0  0  0  0  0
    2.8092    0.8391   -6.4822 C   0  0  0  0  0  0
    3.2468   -0.5576   -6.0147 C   0  0  0  0  0  0
    5.7253   -0.2272   -6.3443 C   0  0  0  0  0  0
    6.7678   -1.3102   -0.3108 C   0  0  0  0  0  0
   -2.5703    0.4445   -2.4507 H   0  0  0  0  0  0
   -3.8992    0.6370   -1.2976 H   0  0  0  0  0  0
   -2.6267   -0.5482   -0.9857 H   0  0  0  0  0  0
   -2.2677    1.4690    0.4250 H   0  0  0  0  0  0
   -2.1976    3.0411   -2.2098 H   0  0  0  0  0  0
   -1.8762    3.7172   -0.6058 H   0  0  0  0  0  0
   -3.4918    3.1100   -1.0051 H   0  0  0  0  0  0
   -0.2193    1.4230   -1.8423 H   0  0  0  0  0  0
    0.0125    2.1521   -0.2623 H   0  0  0  0  0  0
   -0.3625   -0.1578    0.7772 H   0  0  0  0  0  0
   -0.3511   -0.8349   -0.8429 H   0  0  0  0  0  0
    1.9195    0.2947   -1.1991 H   0  0  0  0  0  0
    1.9495    0.6571    0.5188 H   0  0  0  0  0  0
    1.8526   -2.0988   -0.7892 H   0  0  0  0  0  0
    1.8110   -1.3836    2.1937 H   0  0  0  0  0  0
    2.0812   -3.0178    1.5758 H   0  0  0  0  0  0
    0.5333   -2.2192    1.2986 H   0  0  0  0  0  0
    4.0336   -1.0146    1.0209 H   0  0  0  0  0  0
    4.8487   -3.1928    0.8527 H   0  0  0  0  0  0
    3.4692   -3.6635   -0.1166 H   0  0  0  0  0  0
    5.9675   -3.6998   -1.2348 H   0  0  0  0  0  0
    4.5603   -3.2046   -2.1722 H   0  0  0  0  0  0
    3.7498   -0.8691   -1.9660 H   0  0  0  0  0  0
    3.7435    1.3556   -1.1196 H   0  0  0  0  0  0
    4.9951    1.0263    0.0553 H   0  0  0  0  0  0
    5.5530    2.3206   -2.2547 H   0  0  0  0  0  0
    6.7299    1.2918   -1.4952 H   0  0  0  0  0  0
    6.6725    0.8016   -3.8434 H   0  0  0  0  0  0
    7.3943   -0.9531   -2.6053 H   0  0  0  0  0  0
    7.0297   -1.8869   -4.6517 H   0  0  0  0  0  0
    6.3554   -3.0835   -3.5831 H   0  0  0  0  0  0
    4.8812   -2.7187   -5.5461 H   0  0  0  0  0  0
    4.0437   -2.2430   -4.0759 H   0  0  0  0  0  0
    3.7328    0.1070   -3.5103 H   0  0  0  0  0  0
    4.1556    2.5391   -3.7543 H   0  0  0  0  0  0
    4.9963    2.2455   -5.2645 H   0  0  0  0  0  0
    2.0723    1.5957   -4.5990 H   0  0  0  0  0  0
    2.6188    2.8585   -5.6949 H   0  0  0  0  0  0
    1.7972    0.7894   -6.9020 H   0  0  0  0  0  0
    3.4580    1.1834   -7.2972 H   0  0  0  0  0  0
    3.2615   -1.2557   -6.8624 H   0  0  0  0  0  0
    2.4963   -0.9433   -5.3093 H   0  0  0  0  0  0
    5.5339    0.7200   -6.8527 H   0  0  0  0  0  0
    5.7730   -1.0072   -7.1131 H   0  0  0  0  0  0
    6.7165   -0.1507   -5.8920 H   0  0  0  0  0  0
    7.1620   -0.2923   -0.2859 H   0  0  0  0  0  0
    7.6129   -1.9831   -0.4964 H   0  0  0  0  0  0
    6.3840   -1.5334    0.6883 H   0  0  0  0  0  0
  1  2  1  0  0  0
  1 28  1  0  0  0
  1 29  1  0  0  0
  1 30  1  0  0  0
  2  3  1  0  0  0
  2  4  1  0  0  0
  2 31  1  0  0  0
  3 32  1  0  0  0
  3 33  1  0  0  0
  3 34  1  0  0  0
  4  5  1  0  0  0
  4 35  1  0  0  0
  4 36  1  0  0  0
  5  6  1  0  0  0
  5 37  1  0  0  0
  5 38  1  0  0  0
  6  7  1  0  0  0
  6 39  1  0  0  0
  6 40  1  0  0  0
  7  8  1  0  0  0
  7  9  1  0  0  0
  7 41  1  0  0  0
  8 42  1  0  0  0
  8 43  1  0  0  0
  8 44  1  0  0  0
  9 13  1  0  0  0
  9 10  1  0  0  0
  9 45  1  0  0  0
 10 11  1  0  0  0
 10 46  1  0  0  0
 10 47  1  0  0  0
 11 12  1  0  0  0
 11 48  1  0  0  0
 11 49  1  0  0  0
 12 17  1  0  0  0
 12 13  1  0  0  0
 12 27  1  0  0  0
 13 14  1  0  0  0
 13 50  1  0  0  0
 14 15  1  0  0  0
 14 51  1  0  0  0
 14 52  1  0  0  0
 15 16  1  0  0  0
 15 53  1  0  0  0
 15 54  1  0  0  0
 16 21  1  0  0  0
 16 17  1  0  0  0
 16 55  1  0  0  0
 17 18  1  0  0  0
 17 56  1  0  0  0
 18 19  1  0  0  0
 18 57  1  0  0  0
 18 58  1  0  0  0
 19 20  1  0  0  0
 19 59  1  0  0  0
 19 60  1  0  0  0
 20 25  1  0  0  0
 20 21  1  0  0  0
 20 26  1  0  0  0
 21 22  1  0  0  0
 21 61  1  0  0  0
 22 23  1  0  0  0
 22 62  1  0  0  0
 22 63  1  0  0  0
 23 24  1  0  0  0
 23 64  1  0  0  0
 23 65  1  0  0  0
 24 25  1  0  0  0
 24 66  1  0  0  0
 24 67  1  0  0  0
 25 68  1  0  0  0
 25 69  1  0  0  0
 26 70  1  0  0  0
 26 71  1  0  0  0
 26 72  1  0  0  0
 27 73  1  0  0  0
 27 74  1  0  0  0
 27 75  1  0  0  0
M  END
>  <i_m_Spin_multiplicity> (1)
1

>  <s_j_Task> (1)
Single Point

>  <s_j_QM_Method> (1)
DFT(b3lyp-d3)

>  <s_j_QM_Basis> (1)
cc-pvtz(-f)

>  <i_j_Number_of_canonical_orbitals> (1)
1037

>  <i_j_Geometry_convergence_category> (1)
3

>  <r_j_Gas_Phase_Energy> (1)
-1058.23892673154

>  <r_j_Final_Energy> (1)
-1058.23892673154

>  <r_j_HOMO> (1)
-0.249531651469789

>  <r_j_LUMO> (1)
0.0251535160725559

>  <r_j_Polarizability> (1)
301.750983246713

>  <r_j_QM_Dipole_(debye)> (1)
0.0999681460034751

>  <r_j_QM_Dipole_X_(debye)> (1)
0.0724506236682103

>  <r_j_QM_Dipole_Y_(debye)> (1)
0.0674938234572666

>  <r_j_QM_Dipole_Z_(debye)> (1)
-0.0137521322193613

>  <r_j_Lowest_Frequency_(cm-1)> (1)
28.7043140427845

>  <r_j_Highest_Frequency_(cm-1)> (1)
3076.42489622874

>  <r_j_2nd_Lowest_Frequency_(cm-1)> (1)
51.2937964040254

>  <i_j_Num_Negative_Frequencies> (1)
0

>  <r_j_Zero_Point_Energy_(kcal/mol)> (1)
442.046809079712

>  <r_j_Entropy_(cal/mol/K)_298.15K_1.00E+00atm> (1)
163.472134183665

>  <r_j_Enthalpy_(kcal/mol)_298.15K_1.00E+00atm> (1)
16.9846275348827

>  <r_j_Free_Energy_(kcal/mol)_298.15K_1.00E+00atm> (1)
-31.754589271977

>  <r_j_Internal_Energy_(kcal/mol)_298.15K_1.00E+00atm> (1)
16.3921419460554

>  <r_j_Heat_Capacity_(cal/mol/K)_298.15K_1.00E+00atm> (1)
112.993215571692

>  <r_j_ln(Q)_298.15K_1.00E+00atm> (1)
53.5955470829761

>  <r_j_Total_Internal_Energy_(au)_298.15K_1.00E+00atm> (1)
-1057.50835775539

>  <r_j_Total_Enthalpy_(au)_298.15K_1.00E+00atm> (1)
-1057.5074135695

>  <r_j_Total_Free_Energy_(au)_298.15K_1.00E+00atm> (1)
-1057.58508445597

>  <r_lp_tautomer_probability> (1)
1

>  <r_epik_Ionization_Penalty> (1)
  0.0000

>  <r_epik_Ionization_Penalty_Charging> (1)
  0.0000

>  <r_epik_Ionization_Penalty_Neutral> (1)
  0.0000

>  <r_epik_State_Penalty> (1)
  0.0000

>  <r_epik_Charging_Adjusted_Penalty> (1)
0

>  <i_epik_Tot_Q> (1)
0

>  <i_epik_Tot_abs_Q> (1)
0

>  <s_lp_Force_Field> (1)
S-OPLS

>  <r_lp_Energy> (1)
61.6935

>  <b_lp_Chiralities_Consistent> (1)
1

$$$$
