21832_Heptylcyclohexane
                    3D
 Schrodinger Suite 2021-3.
 39 39  0  0  1  0            999 V2000
   -2.6833    3.0639   -0.1506 C   0  0  0  0  0  0
   -2.1617    1.6261   -0.0703 C   0  0  0  0  0  0
   -0.6308    1.5416   -0.0509 C   0  0  0  0  0  0
   -0.1023    0.1051    0.0272 C   0  0  0  0  0  0
    1.4276    0.0146    0.0486 C   0  0  0  0  0  0
    1.9481   -1.4258    0.1211 C   0  0  0  0  0  0
    3.4791   -1.5120    0.1525 C   0  0  0  0  0  0
    4.0534   -2.9382    0.1137 C   0  0  0  0  0  0
    5.5860   -2.9097   -0.0456 C   0  0  0  0  0  0
    6.1957   -4.3184   -0.0925 C   0  0  0  0  0  0
    5.8019   -5.1366    1.1457 C   0  0  0  0  0  0
    4.2761   -5.1842    1.3099 C   0  0  0  0  0  0
    3.6690   -3.7731    1.3510 C   0  0  0  0  0  0
   -3.7778    3.0957   -0.1626 H   0  0  0  0  0  0
   -2.3249    3.5629   -1.0584 H   0  0  0  0  0  0
   -2.3415    3.6555    0.7066 H   0  0  0  0  0  0
   -2.5612    1.1393    0.8299 H   0  0  0  0  0  0
   -2.5442    1.0476   -0.9224 H   0  0  0  0  0  0
   -0.2291    2.0295   -0.9508 H   0  0  0  0  0  0
   -0.2462    2.1187    0.8024 H   0  0  0  0  0  0
   -0.5070   -0.3820    0.9261 H   0  0  0  0  0  0
   -0.4876   -0.4701   -0.8270 H   0  0  0  0  0  0
    1.8342    0.5046   -0.8477 H   0  0  0  0  0  0
    1.8140    0.5845    0.9059 H   0  0  0  0  0  0
    1.5249   -1.9111    1.0099 H   0  0  0  0  0  0
    1.5709   -1.9917   -0.7431 H   0  0  0  0  0  0
    3.8797   -0.9505   -0.7037 H   0  0  0  0  0  0
    3.8545   -0.9993    1.0507 H   0  0  0  0  0  0
    3.6374   -3.4459   -0.7722 H   0  0  0  0  0  0
    5.8551   -2.3493   -0.9500 H   0  0  0  0  0  0
    6.0177   -2.3572    0.8026 H   0  0  0  0  0  0
    5.8382   -4.8358   -0.9944 H   0  0  0  0  0  0
    7.2872   -4.2566   -0.1800 H   0  0  0  0  0  0
    6.2121   -6.1516    1.0813 H   0  0  0  0  0  0
    6.2459   -4.6740    2.0390 H   0  0  0  0  0  0
    3.8409   -5.7374    0.4653 H   0  0  0  0  0  0
    4.0059   -5.7378    2.2172 H   0  0  0  0  0  0
    4.0256   -3.2498    2.2514 H   0  0  0  0  0  0
    2.5794   -3.8430    1.4426 H   0  0  0  0  0  0
  1  2  1  0  0  0
  1 14  1  0  0  0
  1 15  1  0  0  0
  1 16  1  0  0  0
  2  3  1  0  0  0
  2 17  1  0  0  0
  2 18  1  0  0  0
  3  4  1  0  0  0
  3 19  1  0  0  0
  3 20  1  0  0  0
  4  5  1  0  0  0
  4 21  1  0  0  0
  4 22  1  0  0  0
  5  6  1  0  0  0
  5 23  1  0  0  0
  5 24  1  0  0  0
  6  7  1  0  0  0
  6 25  1  0  0  0
  6 26  1  0  0  0
  7  8  1  0  0  0
  7 27  1  0  0  0
  7 28  1  0  0  0
  8 13  1  0  0  0
  8  9  1  0  0  0
  8 29  1  0  0  0
  9 10  1  0  0  0
  9 30  1  0  0  0
  9 31  1  0  0  0
 10 11  1  0  0  0
 10 32  1  0  0  0
 10 33  1  0  0  0
 11 12  1  0  0  0
 11 34  1  0  0  0
 11 35  1  0  0  0
 12 13  1  0  0  0
 12 36  1  0  0  0
 12 37  1  0  0  0
 13 38  1  0  0  0
 13 39  1  0  0  0
M  END
>  <i_m_Spin_multiplicity> (1)
1

>  <s_j_Task> (1)
Single Point

>  <s_j_QM_Method> (1)
DFT(b3lyp-d3)

>  <s_j_QM_Basis> (1)
cc-pvtz(-f)

>  <i_j_Number_of_canonical_orbitals> (1)
528

>  <i_j_Geometry_convergence_category> (1)
3

>  <r_j_Gas_Phase_Energy> (1)
-511.279847575281

>  <r_j_Final_Energy> (1)
-511.279847575281

>  <r_j_HOMO> (1)
-0.297492417974259

>  <r_j_LUMO> (1)
0.00737498302852848

>  <r_j_Polarizability> (1)
156.60333827643

>  <r_j_QM_Dipole_(debye)> (1)
0.114885335672465

>  <r_j_QM_Dipole_X_(debye)> (1)
-0.0210608618004851

>  <r_j_QM_Dipole_Y_(debye)> (1)
-0.110942385672251

>  <r_j_QM_Dipole_Z_(debye)> (1)
-0.0211392410967229

>  <r_j_Lowest_Frequency_(cm-1)> (1)
53.2068710146093

>  <r_j_Highest_Frequency_(cm-1)> (1)
3045.81303903091

>  <r_j_2nd_Lowest_Frequency_(cm-1)> (1)
63.5119348552589

>  <i_j_Num_Negative_Frequencies> (1)
0

>  <r_j_Zero_Point_Energy_(kcal/mol)> (1)
231.102431012392

>  <r_j_Entropy_(cal/mol/K)_298.15K_1.00E+00atm> (1)
116.639106975104

>  <r_j_Enthalpy_(kcal/mol)_298.15K_1.00E+00atm> (1)
9.56116836439317

>  <r_j_Free_Energy_(kcal/mol)_298.15K_1.00E+00atm> (1)
-25.214781380234

>  <r_j_Internal_Energy_(kcal/mol)_298.15K_1.00E+00atm> (1)
8.9686827755659

>  <r_j_Heat_Capacity_(cal/mol/K)_298.15K_1.00E+00atm> (1)
56.4898154381846

>  <r_j_ln(Q)_298.15K_1.00E+00atm> (1)
42.5576281612899

>  <r_j_Total_Internal_Energy_(au)_298.15K_1.00E+00atm> (1)
-510.897269900736

>  <r_j_Total_Enthalpy_(au)_298.15K_1.00E+00atm> (1)
-510.896325714843

>  <r_j_Total_Free_Energy_(au)_298.15K_1.00E+00atm> (1)
-510.951744718711

>  <r_lp_tautomer_probability> (1)
1

>  <r_epik_Ionization_Penalty> (1)
  0.0000

>  <r_epik_Ionization_Penalty_Charging> (1)
  0.0000

>  <r_epik_Ionization_Penalty_Neutral> (1)
  0.0000

>  <r_epik_State_Penalty> (1)
  0.0000

>  <r_epik_Charging_Adjusted_Penalty> (1)
0

>  <i_epik_Tot_Q> (1)
0

>  <i_epik_Tot_abs_Q> (1)
0

>  <s_lp_Force_Field> (1)
S-OPLS

>  <r_lp_Energy> (1)
10.8045

>  <b_lp_Chiralities_Consistent> (1)
1

$$$$
