21896169_Dipropylene Glycol Methyl Ether Acetate
                    3D
 Schrodinger Suite 2021-3.
 31 30  0  0  1  0            999 V2000
   -0.0838    2.1446    1.3033 C   0  0  0  0  0  0
   -0.4867    1.4457    0.0108 C   0  0  0  0  0  0
   -0.0201   -0.0147   -0.0240 C   0  0  0  0  0  0
    1.3940   -0.0313   -0.0332 O   0  0  0  0  0  0
    2.0076   -1.3128   -0.0176 C   0  0  0  0  0  0
    3.4967   -1.0652    0.1936 C   0  0  0  0  0  0
    1.7260   -2.1122   -1.2906 C   0  0  0  0  0  0
    2.1858   -1.3359   -2.4137 O   0  0  0  0  0  0
    1.8775   -1.8238   -3.6389 C   0  0  0  0  0  0
    1.2715   -2.8578   -3.8137 O   0  0  0  0  0  0
    2.3799   -0.8975   -4.7192 C   0  0  0  0  0  0
    0.0558    2.2324   -1.0421 O   0  0  0  0  0  0
   -0.0715    1.6886   -2.3414 C   0  0  0  0  0  0
   -0.5562    1.6665    2.1671 H   0  0  0  0  0  0
   -0.3883    3.1936    1.2702 H   0  0  0  0  0  0
    1.0013    2.0951    1.4190 H   0  0  0  0  0  0
   -1.5897    1.4199   -0.0771 H   0  0  0  0  0  0
   -0.4218   -0.5401    0.8594 H   0  0  0  0  0  0
   -0.4329   -0.5150   -0.9117 H   0  0  0  0  0  0
    1.6059   -1.9123    0.8199 H   0  0  0  0  0  0
    4.0414   -2.0111    0.2708 H   0  0  0  0  0  0
    3.6510   -0.4914    1.1104 H   0  0  0  0  0  0
    3.8960   -0.4943   -0.6478 H   0  0  0  0  0  0
    2.2551   -3.0714   -1.2626 H   0  0  0  0  0  0
    0.6629   -2.3330   -1.4178 H   0  0  0  0  0  0
    1.8840    0.0741   -4.6312 H   0  0  0  0  0  0
    2.1735   -1.3335   -5.6960 H   0  0  0  0  0  0
    3.4533   -0.7267   -4.5989 H   0  0  0  0  0  0
    0.2057    2.4815   -3.0415 H   0  0  0  0  0  0
   -1.1054    1.3759   -2.5635 H   0  0  0  0  0  0
    0.6013    0.8331   -2.4917 H   0  0  0  0  0  0
  1  2  1  0  0  0
  1 14  1  0  0  0
  1 15  1  0  0  0
  1 16  1  0  0  0
  2  3  1  0  0  0
  2 12  1  0  0  0
  2 17  1  0  0  0
  3  4  1  0  0  0
  3 18  1  0  0  0
  3 19  1  0  0  0
  4  5  1  0  0  0
  5  6  1  0  0  0
  5  7  1  0  0  0
  5 20  1  0  0  0
  6 21  1  0  0  0
  6 22  1  0  0  0
  6 23  1  0  0  0
  7  8  1  0  0  0
  7 24  1  0  0  0
  7 25  1  0  0  0
  8  9  1  0  0  0
  9 10  2  0  0  0
  9 11  1  0  0  0
 11 26  1  0  0  0
 11 27  1  0  0  0
 11 28  1  0  0  0
 12 13  1  0  0  0
 13 29  1  0  0  0
 13 30  1  0  0  0
 13 31  1  0  0  0
M  END
>  <i_m_Spin_multiplicity> (1)
1

>  <s_j_Task> (1)
Single Point

>  <s_j_QM_Method> (1)
DFT(b3lyp-d3)

>  <s_j_QM_Basis> (1)
cc-pvtz(-f)

>  <i_j_Number_of_canonical_orbitals> (1)
461

>  <i_j_Geometry_convergence_category> (1)
1

>  <r_j_Gas_Phase_Energy> (1)
-654.943258131983

>  <r_j_Final_Energy> (1)
-654.943258131983

>  <r_j_HOMO> (1)
-0.244890906054459

>  <r_j_LUMO> (1)
0.00784275826315451

>  <r_j_Polarizability> (1)
123.786809621776

>  <r_j_QM_Dipole_(debye)> (1)
0.805929839676378

>  <r_j_QM_Dipole_X_(debye)> (1)
0.142450605248822

>  <r_j_QM_Dipole_Y_(debye)> (1)
-0.417452644547804

>  <r_j_QM_Dipole_Z_(debye)> (1)
0.674510208303092

>  <r_j_Lowest_Frequency_(cm-1)> (1)
42.7795949616706

>  <r_j_Highest_Frequency_(cm-1)> (1)
3118.36610623032

>  <r_j_2nd_Lowest_Frequency_(cm-1)> (1)
47.7622191494805

>  <i_j_Num_Negative_Frequencies> (1)
0

>  <r_j_Zero_Point_Energy_(kcal/mol)> (1)
168.549372749368

>  <r_j_Entropy_(cal/mol/K)_298.15K_1.00E+00atm> (1)
118.615509377952

>  <r_j_Enthalpy_(kcal/mol)_298.15K_1.00E+00atm> (1)
9.86432108042237

>  <r_j_Free_Energy_(kcal/mol)_298.15K_1.00E+00atm> (1)
-25.500893040614

>  <r_j_Internal_Energy_(kcal/mol)_298.15K_1.00E+00atm> (1)
9.2718354915951

>  <r_j_Heat_Capacity_(cal/mol/K)_298.15K_1.00E+00atm> (1)
55.0719222171782

>  <r_j_ln(Q)_298.15K_1.00E+00atm> (1)
43.0405287849933

>  <r_j_Total_Internal_Energy_(au)_298.15K_1.00E+00atm> (1)
-654.659881997053

>  <r_j_Total_Enthalpy_(au)_298.15K_1.00E+00atm> (1)
-654.658937811161

>  <r_j_Total_Free_Energy_(au)_298.15K_1.00E+00atm> (1)
-654.715295867591

>  <r_lp_tautomer_probability> (1)
1

>  <r_epik_Ionization_Penalty> (1)
  0.0000

>  <r_epik_Ionization_Penalty_Charging> (1)
  0.0000

>  <r_epik_Ionization_Penalty_Neutral> (1)
  0.0000

>  <r_epik_State_Penalty> (1)
  0.0000

>  <r_epik_Charging_Adjusted_Penalty> (1)
0

>  <i_epik_Tot_Q> (1)
0

>  <i_epik_Tot_abs_Q> (1)
0

>  <s_lp_Force_Field> (1)
S-OPLS

>  <r_lp_Energy> (1)
1.087612

>  <b_lp_Chiralities_Consistent> (1)
1

>  <s_epik_Chemistry_Notes> (1)
This compound has an ester and may undergo hydrolysis at high or low pH.

$$$$
