22048_Methyl hexacosanoate
                    3D
 Schrodinger Suite 2021-3.
 83 82  0  0  1  0            999 V2000
  -13.0139    0.3741    5.3563 C   0  0  0  0  0  0
  -11.4971    0.2451    5.1859 C   0  0  0  0  0  0
  -11.0636   -1.1663    4.7654 C   0  0  0  0  0  0
   -9.5425   -1.3607    4.6664 C   0  0  0  0  0  0
   -8.8680   -0.5474    3.5536 C   0  0  0  0  0  0
   -7.3543   -0.7762    3.4728 C   0  0  0  0  0  0
   -6.6753    0.0277    2.3578 C   0  0  0  0  0  0
   -5.1534   -0.1507    2.3195 C   0  0  0  0  0  0
   -4.4728    0.6407    1.1967 C   0  0  0  0  0  0
   -2.9453    0.5100    1.2032 C   0  0  0  0  0  0
   -2.2660    1.2784    0.0615 C   0  0  0  0  0  0
   -0.7313    1.2917    0.1318 C   0  0  0  0  0  0
   -0.0720   -0.0875   -0.0038 C   0  0  0  0  0  0
    1.4596   -0.0222    0.0191 C   0  0  0  0  0  0
    2.1360   -1.3932   -0.0971 C   0  0  0  0  0  0
    3.6665   -1.3150   -0.0491 C   0  0  0  0  0  0
    4.3513   -2.6843   -0.1518 C   0  0  0  0  0  0
    5.8871   -2.6237   -0.1705 C   0  0  0  0  0  0
    6.5156   -2.1015    1.1283 C   0  0  0  0  0  0
    8.0484   -2.0895    1.0996 C   0  0  0  0  0  0
    8.6708   -1.5646    2.3988 C   0  0  0  0  0  0
   10.2041   -1.5405    2.3695 C   0  0  0  0  0  0
   10.8512   -0.9283    3.6235 C   0  0  0  0  0  0
   10.4616   -1.5928    4.9534 C   0  0  0  0  0  0
   10.7947   -3.0982    5.0053 C   0  0  0  0  0  0
   10.4280   -3.6672    6.3560 C   0  0  0  0  0  0
   11.1422   -3.6711    7.3354 O   0  0  0  0  0  0
    9.1538   -4.1293    6.3613 O   0  0  0  0  0  0
    8.6901   -4.6241    7.6290 C   0  0  0  0  0  0
  -13.3010    1.3874    5.6562 H   0  0  0  0  0  0
  -13.3857   -0.3185    6.1205 H   0  0  0  0  0  0
  -13.5362    0.1428    4.4208 H   0  0  0  0  0  0
  -11.1539    0.9775    4.4448 H   0  0  0  0  0  0
  -10.9965    0.5078    6.1283 H   0  0  0  0  0  0
  -11.4687   -1.8877    5.4884 H   0  0  0  0  0  0
  -11.5267   -1.4141    3.7992 H   0  0  0  0  0  0
   -9.0827   -1.1032    5.6316 H   0  0  0  0  0  0
   -9.3276   -2.4257    4.5040 H   0  0  0  0  0  0
   -9.3296   -0.8028    2.5886 H   0  0  0  0  0  0
   -9.0557    0.5235    3.7055 H   0  0  0  0  0  0
   -6.8981   -0.5136    4.4382 H   0  0  0  0  0  0
   -7.1524   -1.8468    3.3248 H   0  0  0  0  0  0
   -7.1027   -0.2627    1.3874 H   0  0  0  0  0  0
   -6.9106    1.0943    2.4844 H   0  0  0  0  0  0
   -4.7299    0.1557    3.2870 H   0  0  0  0  0  0
   -4.9130   -1.2179    2.2094 H   0  0  0  0  0  0
   -4.8648    0.3055    0.2257 H   0  0  0  0  0  0
   -4.7460    1.7023    1.2824 H   0  0  0  0  0  0
   -2.5554    0.8733    2.1654 H   0  0  0  0  0  0
   -2.6772   -0.5533    1.1500 H   0  0  0  0  0  0
   -2.5840    0.8527   -0.9011 H   0  0  0  0  0  0
   -2.6289    2.3154    0.0683 H   0  0  0  0  0  0
   -0.3437    1.9479   -0.6594 H   0  0  0  0  0  0
   -0.4188    1.7471    1.0827 H   0  0  0  0  0  0
   -0.4120   -0.7460    0.8061 H   0  0  0  0  0  0
   -0.4054   -0.5590   -0.9397 H   0  0  0  0  0  0
    1.8093    0.6260   -0.7973 H   0  0  0  0  0  0
    1.7857    0.4636    0.9502 H   0  0  0  0  0  0
    1.7800   -2.0443    0.7144 H   0  0  0  0  0  0
    1.8226   -1.8776   -1.0330 H   0  0  0  0  0  0
    4.0240   -0.6708   -0.8657 H   0  0  0  0  0  0
    3.9651   -0.8166    0.8824 H   0  0  0  0  0  0
    4.0233   -3.3172    0.6855 H   0  0  0  0  0  0
    4.0032   -3.1861   -1.0649 H   0  0  0  0  0  0
    6.2821   -3.6281   -0.3750 H   0  0  0  0  0  0
    6.2140   -1.9929   -1.0098 H   0  0  0  0  0  0
    6.1588   -1.0840    1.3341 H   0  0  0  0  0  0
    6.1713   -2.7199    1.9701 H   0  0  0  0  0  0
    8.4192   -3.1059    0.9033 H   0  0  0  0  0  0
    8.3915   -1.4740    0.2557 H   0  0  0  0  0  0
    8.2962   -0.5503    2.5995 H   0  0  0  0  0  0
    8.3224   -2.1865    3.2344 H   0  0  0  0  0  0
   10.5784   -2.5617    2.2159 H   0  0  0  0  0  0
   10.5375   -0.9691    1.4931 H   0  0  0  0  0  0
   11.9434   -0.9629    3.5143 H   0  0  0  0  0  0
   10.5824    0.1349    3.6806 H   0  0  0  0  0  0
   10.9855   -1.0917    5.7755 H   0  0  0  0  0  0
    9.3896   -1.4616    5.1414 H   0  0  0  0  0  0
   10.2507   -3.6374    4.2254 H   0  0  0  0  0  0
   11.8681   -3.2493    4.8579 H   0  0  0  0  0  0
    7.6645   -4.9535    7.4614 H   0  0  0  0  0  0
    8.7221   -3.8359    8.3862 H   0  0  0  0  0  0
    9.3108   -5.4578    7.9680 H   0  0  0  0  0  0
  1  2  1  0  0  0
  1 30  1  0  0  0
  1 31  1  0  0  0
  1 32  1  0  0  0
  2  3  1  0  0  0
  2 33  1  0  0  0
  2 34  1  0  0  0
  3  4  1  0  0  0
  3 35  1  0  0  0
  3 36  1  0  0  0
  4  5  1  0  0  0
  4 37  1  0  0  0
  4 38  1  0  0  0
  5  6  1  0  0  0
  5 39  1  0  0  0
  5 40  1  0  0  0
  6  7  1  0  0  0
  6 41  1  0  0  0
  6 42  1  0  0  0
  7  8  1  0  0  0
  7 43  1  0  0  0
  7 44  1  0  0  0
  8  9  1  0  0  0
  8 45  1  0  0  0
  8 46  1  0  0  0
  9 10  1  0  0  0
  9 47  1  0  0  0
  9 48  1  0  0  0
 10 11  1  0  0  0
 10 49  1  0  0  0
 10 50  1  0  0  0
 11 12  1  0  0  0
 11 51  1  0  0  0
 11 52  1  0  0  0
 12 13  1  0  0  0
 12 53  1  0  0  0
 12 54  1  0  0  0
 13 14  1  0  0  0
 13 55  1  0  0  0
 13 56  1  0  0  0
 14 15  1  0  0  0
 14 57  1  0  0  0
 14 58  1  0  0  0
 15 16  1  0  0  0
 15 59  1  0  0  0
 15 60  1  0  0  0
 16 17  1  0  0  0
 16 61  1  0  0  0
 16 62  1  0  0  0
 17 18  1  0  0  0
 17 63  1  0  0  0
 17 64  1  0  0  0
 18 19  1  0  0  0
 18 65  1  0  0  0
 18 66  1  0  0  0
 19 20  1  0  0  0
 19 67  1  0  0  0
 19 68  1  0  0  0
 20 21  1  0  0  0
 20 69  1  0  0  0
 20 70  1  0  0  0
 21 22  1  0  0  0
 21 71  1  0  0  0
 21 72  1  0  0  0
 22 23  1  0  0  0
 22 73  1  0  0  0
 22 74  1  0  0  0
 23 24  1  0  0  0
 23 75  1  0  0  0
 23 76  1  0  0  0
 24 25  1  0  0  0
 24 77  1  0  0  0
 24 78  1  0  0  0
 25 26  1  0  0  0
 25 79  1  0  0  0
 25 80  1  0  0  0
 26 27  2  0  0  0
 26 28  1  0  0  0
 28 29  1  0  0  0
 29 81  1  0  0  0
 29 82  1  0  0  0
 29 83  1  0  0  0
M  END
>  <i_m_Spin_multiplicity> (1)
1

>  <s_j_Task> (1)
Single Point

>  <s_j_QM_Method> (1)
DFT(b3lyp-d3)

>  <s_j_QM_Basis> (1)
cc-pvtz(-f)

>  <i_j_Number_of_canonical_orbitals> (1)
1145

>  <i_j_Geometry_convergence_category> (1)
3

>  <r_j_Gas_Phase_Energy> (1)
-1212.39663292336

>  <r_j_Final_Energy> (1)
-1212.39663292336

>  <r_j_HOMO> (1)
-0.301640349299747

>  <r_j_LUMO> (1)
-0.04831182168998

>  <r_j_Polarizability> (1)
339.88832036878

>  <r_j_QM_Dipole_(debye)> (1)
1.96588622985885

>  <r_j_QM_Dipole_X_(debye)> (1)
-1.51567792025989

>  <r_j_QM_Dipole_Y_(debye)> (1)
0.14661302085255

>  <r_j_QM_Dipole_Z_(debye)> (1)
-1.2433558351903

>  <r_j_Lowest_Frequency_(cm-1)> (1)
12.2105192804839

>  <r_j_Highest_Frequency_(cm-1)> (1)
3106.96050651889

>  <r_j_2nd_Lowest_Frequency_(cm-1)> (1)
23.4870396971764

>  <i_j_Num_Negative_Frequencies> (1)
0

>  <r_j_Zero_Point_Energy_(kcal/mol)> (1)
485.914297537702

>  <r_j_Entropy_(cal/mol/K)_298.15K_1.00E+00atm> (1)
207.570523272101

>  <r_j_Enthalpy_(kcal/mol)_298.15K_1.00E+00atm> (1)
22.2337301758448

>  <r_j_Free_Energy_(kcal/mol)_298.15K_1.00E+00atm> (1)
-39.653421337732

>  <r_j_Internal_Energy_(kcal/mol)_298.15K_1.00E+00atm> (1)
21.6412445870175

>  <r_j_Heat_Capacity_(cal/mol/K)_298.15K_1.00E+00atm> (1)
132.440307773502

>  <r_j_ln(Q)_298.15K_1.00E+00atm> (1)
66.9272334812722

>  <r_j_Total_Internal_Energy_(au)_298.15K_1.00E+00atm> (1)
-1211.58779167651

>  <r_j_Total_Enthalpy_(au)_298.15K_1.00E+00atm> (1)
-1211.58684749062

>  <r_j_Total_Free_Energy_(au)_298.15K_1.00E+00atm> (1)
-1211.68547094488

>  <r_lp_tautomer_probability> (1)
1

>  <r_epik_Ionization_Penalty> (1)
  0.0000

>  <r_epik_Ionization_Penalty_Charging> (1)
  0.0000

>  <r_epik_Ionization_Penalty_Neutral> (1)
  0.0000

>  <r_epik_State_Penalty> (1)
  0.0000

>  <r_epik_Charging_Adjusted_Penalty> (1)
0

>  <i_epik_Tot_Q> (1)
0

>  <i_epik_Tot_abs_Q> (1)
0

>  <s_lp_Force_Field> (1)
S-OPLS

>  <r_lp_Energy> (1)
15.509104

>  <b_lp_Chiralities_Consistent> (1)
1

>  <s_epik_Chemistry_Notes> (1)
This compound has an ester and may undergo hydrolysis at high or low pH.

$$$$
