221064_Levopimaric acid
                    3D
 Schrodinger Suite 2021-3.
 51 53  0  0  1  0            999 V2000
   -0.8972   -0.4432    0.4119 C   0  0  0  0  0  0
    0.2011    0.0833   -0.5307 C   0  0  0  0  0  0
    0.1955   -0.6935   -1.8610 C   0  0  0  0  0  0
    1.5718    0.0568    0.1254 C   0  0  0  0  0  0
    2.2818    1.1809    0.3267 C   0  0  0  0  0  0
    3.6202    1.1419    1.0185 C   0  0  0  0  0  0
    4.3985   -0.1876    0.8505 C   0  0  0  0  0  0
    3.4617   -1.3767    0.8112 C   0  0  0  0  0  0
    2.1587   -1.2379    0.4942 C   0  0  0  0  0  0
    4.1382   -2.7041    0.9693 C   0  0  0  0  0  0
    5.2525   -2.8663   -0.0960 C   0  0  0  0  0  0
    6.2046   -1.6457   -0.2380 C   0  0  0  0  0  0
    5.3871   -0.3051   -0.3745 C   0  0  0  0  0  0
    6.3674    0.8877   -0.4444 C   0  0  0  0  0  0
    7.3707    0.9355    0.7051 C   0  0  0  0  0  0
    8.2093   -0.3423    0.7043 C   0  0  0  0  0  0
    7.3920   -1.6532    0.8038 C   0  0  0  0  0  0
    8.3478   -2.8073    0.4361 C   0  0  0  0  0  0
    6.8959   -1.8973    2.2968 C   0  0  0  0  0  0
    6.7419   -3.1006    2.6264 O   0  0  0  0  0  0
    6.6771   -0.8720    2.9981 O   0  5  0  0  0  0
    4.6016   -0.3074   -1.7072 C   0  0  0  0  0  0
   -0.9231    0.1348    1.3410 H   0  0  0  0  0  0
   -0.7211   -1.4911    0.6778 H   0  0  0  0  0  0
   -1.8852   -0.3816   -0.0614 H   0  0  0  0  0  0
   -0.0330    1.1328   -0.7578 H   0  0  0  0  0  0
    0.9558   -0.2994   -2.5425 H   0  0  0  0  0  0
   -0.7826   -0.6261   -2.3538 H   0  0  0  0  0  0
    0.4164   -1.7539   -1.6977 H   0  0  0  0  0  0
    1.8720    2.1475    0.0344 H   0  0  0  0  0  0
    4.2354    1.9941    0.7133 H   0  0  0  0  0  0
    3.4495    1.2857    2.0980 H   0  0  0  0  0  0
    5.0278   -0.2979    1.7399 H   0  0  0  0  0  0
    1.5349   -2.1282    0.4259 H   0  0  0  0  0  0
    4.6038   -2.7886    1.9561 H   0  0  0  0  0  0
    3.4143   -3.5238    0.8678 H   0  0  0  0  0  0
    5.8320   -3.7566    0.1555 H   0  0  0  0  0  0
    4.7751   -3.0517   -1.0674 H   0  0  0  0  0  0
    6.7022   -1.7612   -1.2160 H   0  0  0  0  0  0
    6.9234    0.8000   -1.3917 H   0  0  0  0  0  0
    5.8052    1.8272   -0.5218 H   0  0  0  0  0  0
    8.0197    1.8166    0.5922 H   0  0  0  0  0  0
    6.8668    1.0073    1.6715 H   0  0  0  0  0  0
    8.8020   -0.3647   -0.2269 H   0  0  0  0  0  0
    8.9223   -0.3227    1.5364 H   0  0  0  0  0  0
    8.6687   -2.7474   -0.6145 H   0  0  0  0  0  0
    7.8849   -3.7753    0.6273 H   0  0  0  0  0  0
    9.2451   -2.7597    1.0649 H   0  0  0  0  0  0
    5.2814   -0.4675   -2.5534 H   0  0  0  0  0  0
    4.0991    0.6546   -1.8560 H   0  0  0  0  0  0
    3.8316   -1.0807   -1.7392 H   0  0  0  0  0  0
  1  2  1  0  0  0
  1 23  1  0  0  0
  1 24  1  0  0  0
  1 25  1  0  0  0
  2  3  1  0  0  0
  2  4  1  0  0  0
  2 26  1  0  0  0
  3 27  1  0  0  0
  3 28  1  0  0  0
  3 29  1  0  0  0
  4  9  1  0  0  0
  4  5  2  0  0  0
  5  6  1  0  0  0
  5 30  1  0  0  0
  6  7  1  0  0  0
  6 31  1  0  0  0
  6 32  1  0  0  0
  7 13  1  0  0  0
  7  8  1  0  0  0
  7 33  1  0  0  0
  8  9  2  0  0  0
  8 10  1  0  0  0
  9 34  1  0  0  0
 10 11  1  0  0  0
 10 35  1  0  0  0
 10 36  1  0  0  0
 11 12  1  0  0  0
 11 37  1  0  0  0
 11 38  1  0  0  0
 12 17  1  0  0  0
 12 13  1  0  0  0
 12 39  1  0  0  0
 13 14  1  0  0  0
 13 22  1  0  0  0
 14 15  1  0  0  0
 14 40  1  0  0  0
 14 41  1  0  0  0
 15 16  1  0  0  0
 15 42  1  0  0  0
 15 43  1  0  0  0
 16 17  1  0  0  0
 16 44  1  0  0  0
 16 45  1  0  0  0
 17 18  1  0  0  0
 17 19  1  0  0  0
 18 46  1  0  0  0
 18 47  1  0  0  0
 18 48  1  0  0  0
 19 20  2  0  0  0
 19 21  1  0  0  0
 22 49  1  0  0  0
 22 50  1  0  0  0
 22 51  1  0  0  0
M  END
>  <i_m_Spin_multiplicity> (1)
1

>  <s_j_Task> (1)
Single Point

>  <s_j_QM_Method> (1)
DFT(b3lyp-d3)

>  <s_j_QM_Basis> (1)
cc-pvtz(-f)

>  <i_j_Number_of_canonical_orbitals> (1)
752

>  <i_j_Geometry_convergence_category> (1)
0

>  <r_j_Gas_Phase_Energy> (1)
-930.462323747736

>  <r_j_Final_Energy> (1)
-930.462323747736

>  <r_j_HOMO> (1)
-0.0800735238974928

>  <r_j_LUMO> (1)
0.078115499071185

>  <r_j_Polarizability> (1)
235.787949105153

>  <r_j_QM_Dipole_(debye)> (1)
10.3855961399505

>  <r_j_QM_Dipole_X_(debye)> (1)
-6.47137152109112

>  <r_j_QM_Dipole_Y_(debye)> (1)
3.52316498269342

>  <r_j_QM_Dipole_Z_(debye)> (1)
-7.31910283592798

>  <r_j_Lowest_Frequency_(cm-1)> (1)
52.6501893588733

>  <r_j_Highest_Frequency_(cm-1)> (1)
3091.0407559906

>  <r_j_2nd_Lowest_Frequency_(cm-1)> (1)
68.5238486936052

>  <i_j_Num_Negative_Frequencies> (1)
0

>  <r_j_Zero_Point_Energy_(kcal/mol)> (1)
282.472075687138

>  <r_j_Entropy_(cal/mol/K)_298.15K_1.00E+00atm> (1)
138.195606262677

>  <r_j_Enthalpy_(kcal/mol)_298.15K_1.00E+00atm> (1)
13.1252306021383

>  <r_j_Free_Energy_(kcal/mol)_298.15K_1.00E+00atm> (1)
-28.0777894050789

>  <r_j_Internal_Energy_(kcal/mol)_298.15K_1.00E+00atm> (1)
12.5327450133111

>  <r_j_Heat_Capacity_(cal/mol/K)_298.15K_1.00E+00atm> (1)
84.8958526857469

>  <r_j_ln(Q)_298.15K_1.00E+00atm> (1)
47.3898267477765

>  <r_j_Total_Internal_Energy_(au)_298.15K_1.00E+00atm> (1)
-929.992203638313

>  <r_j_Total_Enthalpy_(au)_298.15K_1.00E+00atm> (1)
-929.991259452421

>  <r_j_Total_Free_Energy_(au)_298.15K_1.00E+00atm> (1)
-930.056920644764

>  <r_epik_Ionization_Penalty> (1)
  0.0049

>  <r_epik_Ionization_Penalty_Charging> (1)
  0.0049

>  <r_epik_Ionization_Penalty_Neutral> (1)
  0.0000

>  <r_epik_State_Penalty> (1)
  0.0036

>  <r_epik_Charging_Adjusted_Penalty> (1)
0.00848030355407149

>  <i_epik_Tot_Q> (1)
-1

>  <i_epik_Tot_abs_Q> (1)
1

>  <s_lp_Force_Field> (1)
S-OPLS

>  <r_lp_Energy> (1)
45.240565

>  <b_lp_Chiralities_Consistent> (1)
1

$$$$
