22129_2-Amino-1-Butanol
                    3D
 Schrodinger Suite 2021-3.
 18 17  0  0  1  0            999 V2000
   -0.5901    1.4421   -0.0214 C   0  0  0  0  0  0
   -0.0453    0.0084    0.0039 C   0  0  0  0  0  0
    1.4751   -0.0772   -0.0571 C   0  0  0  0  0  0
    2.0510   -1.4929   -0.0533 C   0  0  0  0  0  0
    3.4524   -1.3230    0.1244 O   0  0  0  0  0  0
    2.1166    0.6285    1.1449 N   0  3  1  0  0  0
   -1.6813    1.4307   -0.0585 H   0  0  0  0  0  0
   -0.2344    1.9895   -0.9004 H   0  0  0  0  0  0
   -0.3149    2.0114    0.8748 H   0  0  0  0  0  0
   -0.4057   -0.5289    0.8914 H   0  0  0  0  0  0
   -0.4238   -0.5468   -0.8614 H   0  0  0  0  0  0
    1.8694    0.4627   -0.9236 H   0  0  0  0  0  0
    1.6028   -2.0883    0.7570 H   0  0  0  0  0  0
    1.8010   -1.9697   -1.0086 H   0  0  0  0  0  0
    3.9042   -2.1770    0.1409 H   0  0  0  0  0  0
    1.6744    0.3428    2.0246 H   0  0  0  0  0  0
    2.0592    1.6471    1.0760 H   0  0  0  0  0  0
    3.1048    0.3226    1.1631 H   0  0  0  0  0  0
  1  2  1  0  0  0
  1  7  1  0  0  0
  1  8  1  0  0  0
  1  9  1  0  0  0
  2  3  1  0  0  0
  2 10  1  0  0  0
  2 11  1  0  0  0
  3  4  1  0  0  0
  3  6  1  0  0  0
  3 12  1  0  0  0
  4  5  1  0  0  0
  4 13  1  0  0  0
  4 14  1  0  0  0
  5 15  1  0  0  0
  6 16  1  0  0  0
  6 17  1  0  0  0
  6 18  1  0  0  0
M  END
>  <i_m_Spin_multiplicity> (1)
1

>  <s_j_Task> (1)
Single Point

>  <s_j_QM_Method> (1)
DFT(b3lyp-d3)

>  <s_j_QM_Basis> (1)
cc-pvtz(-f)

>  <i_j_Number_of_canonical_orbitals> (1)
245

>  <i_j_Geometry_convergence_category> (1)
0

>  <r_j_Gas_Phase_Energy> (1)
-289.514195694508

>  <r_j_Final_Energy> (1)
-289.514195694508

>  <r_j_HOMO> (1)
-0.468595111163603

>  <r_j_LUMO> (1)
-0.172713314158746

>  <r_j_Polarizability> (1)
58.505056960128

>  <r_j_QM_Dipole_(debye)> (1)
2.72791682943929

>  <r_j_QM_Dipole_X_(debye)> (1)
1.09272781883465

>  <r_j_QM_Dipole_Y_(debye)> (1)
0.732469042430202

>  <r_j_QM_Dipole_Z_(debye)> (1)
2.3897625915903

>  <r_j_Lowest_Frequency_(cm-1)> (1)
125.191959637249

>  <r_j_Highest_Frequency_(cm-1)> (1)
3777.21984718942

>  <r_j_2nd_Lowest_Frequency_(cm-1)> (1)
172.6063491007

>  <i_j_Num_Negative_Frequencies> (1)
0

>  <r_j_Zero_Point_Energy_(kcal/mol)> (1)
106.138691773572

>  <r_j_Entropy_(cal/mol/K)_298.15K_1.00E+00atm> (1)
82.4803204209753

>  <r_j_Enthalpy_(kcal/mol)_298.15K_1.00E+00atm> (1)
5.28475758827527

>  <r_j_Free_Energy_(kcal/mol)_298.15K_1.00E+00atm> (1)
-19.3067499452385

>  <r_j_Internal_Energy_(kcal/mol)_298.15K_1.00E+00atm> (1)
4.692271999448

>  <r_j_Heat_Capacity_(cal/mol/K)_298.15K_1.00E+00atm> (1)
27.7181933722896

>  <r_j_ln(Q)_298.15K_1.00E+00atm> (1)
32.5860245536993

>  <r_j_Total_Internal_Energy_(au)_298.15K_1.00E+00atm> (1)
-289.337575310161

>  <r_j_Total_Enthalpy_(au)_298.15K_1.00E+00atm> (1)
-289.336631124268

>  <r_j_Total_Free_Energy_(au)_298.15K_1.00E+00atm> (1)
-289.375820186281

>  <r_epik_Ionization_Penalty> (1)
  0.0067

>  <r_epik_Ionization_Penalty_Charging> (1)
  0.0067

>  <r_epik_Ionization_Penalty_Neutral> (1)
  0.0000

>  <r_epik_State_Penalty> (1)
  0.0050

>  <r_epik_Charging_Adjusted_Penalty> (1)
0.0117041911689583

>  <i_epik_Tot_Q> (1)
1

>  <i_epik_Tot_abs_Q> (1)
1

>  <s_lp_Force_Field> (1)
S-OPLS

>  <r_lp_Energy> (1)
5.573206

>  <b_lp_Chiralities_Consistent> (1)
1

$$$$
