22199_Ethyl docosanoate
                    3D
 Schrodinger Suite 2021-3.
 74 73  0  0  1  0            999 V2000
  -11.7013    0.5912   -4.7547 C   0  0  0  0  0  0
  -10.9749    0.9973   -3.4690 C   0  0  0  0  0  0
   -9.4498    1.0338   -3.6247 C   0  0  0  0  0  0
   -8.7187    1.4469   -2.3426 C   0  0  0  0  0  0
   -7.1931    1.4820   -2.4885 C   0  0  0  0  0  0
   -6.4731    1.9099   -1.2046 C   0  0  0  0  0  0
   -4.9462    1.9425   -1.3378 C   0  0  0  0  0  0
   -4.2427    2.3825   -0.0471 C   0  0  0  0  0  0
   -2.7145    2.4929   -0.1565 C   0  0  0  0  0  0
   -1.9976    1.1608   -0.4157 C   0  0  0  0  0  0
   -0.4700    1.2843   -0.3811 C   0  0  0  0  0  0
    0.2572   -0.0449   -0.6145 C   0  0  0  0  0  0
    1.7818    0.0724   -0.5065 C   0  0  0  0  0  0
    2.5151   -1.2624   -0.6807 C   0  0  0  0  0  0
    4.0313   -1.1478   -0.4833 C   0  0  0  0  0  0
    4.7583   -2.4956   -0.5738 C   0  0  0  0  0  0
    6.2809   -2.4140   -0.3788 C   0  0  0  0  0  0
    6.7080   -1.8766    0.9940 C   0  0  0  0  0  0
    8.2152   -1.9809    1.2486 C   0  0  0  0  0  0
    8.6309   -1.3638    2.5899 C   0  0  0  0  0  0
   10.1296   -1.5334    2.9039 C   0  0  0  0  0  0
   10.4516   -2.9954    3.1361 C   0  0  0  0  0  0
   10.0229   -3.6518    4.0622 O   0  0  0  0  0  0
   11.2386   -3.5049    2.1625 O   0  0  0  0  0  0
   11.5475   -4.9141    2.2819 C   0  0  0  0  0  0
   12.3944   -5.2914    1.0822 C   0  0  0  0  0  0
  -12.7873    0.5717   -4.6154 H   0  0  0  0  0  0
  -11.3893   -0.4063   -5.0854 H   0  0  0  0  0  0
  -11.4818    1.2913   -5.5691 H   0  0  0  0  0  0
  -11.3280    1.9855   -3.1434 H   0  0  0  0  0  0
  -11.2385    0.3006   -2.6615 H   0  0  0  0  0  0
   -9.0939    0.0441   -3.9456 H   0  0  0  0  0  0
   -9.1841    1.7276   -4.4355 H   0  0  0  0  0  0
   -9.0753    2.4375   -2.0255 H   0  0  0  0  0  0
   -8.9892    0.7553   -1.5316 H   0  0  0  0  0  0
   -6.8334    0.4892   -2.7950 H   0  0  0  0  0  0
   -6.9205    2.1673   -3.3039 H   0  0  0  0  0  0
   -6.8328    2.9038   -0.9017 H   0  0  0  0  0  0
   -6.7507    1.2274   -0.3884 H   0  0  0  0  0  0
   -4.5924    0.9475   -1.6379 H   0  0  0  0  0  0
   -4.6649    2.6243   -2.1537 H   0  0  0  0  0  0
   -4.6487    3.3558    0.2608 H   0  0  0  0  0  0
   -4.4969    1.6801    0.7599 H   0  0  0  0  0  0
   -2.4563    3.2051   -0.9534 H   0  0  0  0  0  0
   -2.3241    2.9264    0.7745 H   0  0  0  0  0  0
   -2.3184    0.4266    0.3378 H   0  0  0  0  0  0
   -2.3035    0.7514   -1.3873 H   0  0  0  0  0  0
   -0.1447    2.0166   -1.1339 H   0  0  0  0  0  0
   -0.1641    1.6959    0.5917 H   0  0  0  0  0  0
   -0.0997   -0.7845    0.1167 H   0  0  0  0  0  0
   -0.0126   -0.4429   -1.6031 H   0  0  0  0  0  0
    2.1486    0.7930   -1.2515 H   0  0  0  0  0  0
    2.0388    0.4966    0.4750 H   0  0  0  0  0  0
    2.1137   -1.9899    0.0395 H   0  0  0  0  0  0
    2.3014   -1.6743   -1.6774 H   0  0  0  0  0  0
    4.4497   -0.4551   -1.2281 H   0  0  0  0  0  0
    4.2213   -0.6903    0.4962 H   0  0  0  0  0  0
    4.3381   -3.1790    0.1783 H   0  0  0  0  0  0
    4.5452   -2.9520   -1.5499 H   0  0  0  0  0  0
    6.7099   -3.4156   -0.5186 H   0  0  0  0  0  0
    6.7190   -1.7837   -1.1660 H   0  0  0  0  0  0
    6.4008   -0.8277    1.0950 H   0  0  0  0  0  0
    6.1723   -2.4264    1.7815 H   0  0  0  0  0  0
    8.5161   -3.0371    1.2156 H   0  0  0  0  0  0
    8.7648   -1.4860    0.4353 H   0  0  0  0  0  0
    8.3863   -0.2945    2.5921 H   0  0  0  0  0  0
    8.0566   -1.8220    3.4042 H   0  0  0  0  0  0
   10.7479   -1.1348    2.0948 H   0  0  0  0  0  0
   10.3761   -0.9981    3.8266 H   0  0  0  0  0  0
   12.0709   -5.0832    3.2287 H   0  0  0  0  0  0
   10.6105   -5.4793    2.3224 H   0  0  0  0  0  0
   12.6543   -6.3537    1.1268 H   0  0  0  0  0  0
   13.3201   -4.7091    1.0618 H   0  0  0  0  0  0
   11.8512   -5.1064    0.1510 H   0  0  0  0  0  0
  1  2  1  0  0  0
  1 27  1  0  0  0
  1 28  1  0  0  0
  1 29  1  0  0  0
  2  3  1  0  0  0
  2 30  1  0  0  0
  2 31  1  0  0  0
  3  4  1  0  0  0
  3 32  1  0  0  0
  3 33  1  0  0  0
  4  5  1  0  0  0
  4 34  1  0  0  0
  4 35  1  0  0  0
  5  6  1  0  0  0
  5 36  1  0  0  0
  5 37  1  0  0  0
  6  7  1  0  0  0
  6 38  1  0  0  0
  6 39  1  0  0  0
  7  8  1  0  0  0
  7 40  1  0  0  0
  7 41  1  0  0  0
  8  9  1  0  0  0
  8 42  1  0  0  0
  8 43  1  0  0  0
  9 10  1  0  0  0
  9 44  1  0  0  0
  9 45  1  0  0  0
 10 11  1  0  0  0
 10 46  1  0  0  0
 10 47  1  0  0  0
 11 12  1  0  0  0
 11 48  1  0  0  0
 11 49  1  0  0  0
 12 13  1  0  0  0
 12 50  1  0  0  0
 12 51  1  0  0  0
 13 14  1  0  0  0
 13 52  1  0  0  0
 13 53  1  0  0  0
 14 15  1  0  0  0
 14 54  1  0  0  0
 14 55  1  0  0  0
 15 16  1  0  0  0
 15 56  1  0  0  0
 15 57  1  0  0  0
 16 17  1  0  0  0
 16 58  1  0  0  0
 16 59  1  0  0  0
 17 18  1  0  0  0
 17 60  1  0  0  0
 17 61  1  0  0  0
 18 19  1  0  0  0
 18 62  1  0  0  0
 18 63  1  0  0  0
 19 20  1  0  0  0
 19 64  1  0  0  0
 19 65  1  0  0  0
 20 21  1  0  0  0
 20 66  1  0  0  0
 20 67  1  0  0  0
 21 22  1  0  0  0
 21 68  1  0  0  0
 21 69  1  0  0  0
 22 23  2  0  0  0
 22 24  1  0  0  0
 24 25  1  0  0  0
 25 26  1  0  0  0
 25 70  1  0  0  0
 25 71  1  0  0  0
 26 72  1  0  0  0
 26 73  1  0  0  0
 26 74  1  0  0  0
M  END
>  <i_m_Spin_multiplicity> (1)
1

>  <s_j_Task> (1)
Single Point

>  <s_j_QM_Method> (1)
DFT(b3lyp-d3)

>  <s_j_QM_Basis> (1)
cc-pvtz(-f)

>  <i_j_Number_of_canonical_orbitals> (1)
1022

>  <i_j_Geometry_convergence_category> (1)
3

>  <r_j_Gas_Phase_Energy> (1)
-1094.41524432509

>  <r_j_Final_Energy> (1)
-1094.41524432509

>  <r_j_HOMO> (1)
-0.277481546649131

>  <r_j_LUMO> (1)
-0.0281181776657519

>  <r_j_Polarizability> (1)
303.738645185365

>  <r_j_QM_Dipole_(debye)> (1)
1.81460602237232

>  <r_j_QM_Dipole_X_(debye)> (1)
0.664018516679344

>  <r_j_QM_Dipole_Y_(debye)> (1)
0.346932722066109

>  <r_j_QM_Dipole_Z_(debye)> (1)
-1.65272868683782

>  <r_j_Lowest_Frequency_(cm-1)> (1)
19.2712243567923

>  <r_j_Highest_Frequency_(cm-1)> (1)
3073.46963519382

>  <r_j_2nd_Lowest_Frequency_(cm-1)> (1)
22.8500569251299

>  <i_j_Num_Negative_Frequencies> (1)
0

>  <r_j_Zero_Point_Energy_(kcal/mol)> (1)
431.845694036186

>  <r_j_Entropy_(cal/mol/K)_298.15K_1.00E+00atm> (1)
192.070286317187

>  <r_j_Enthalpy_(kcal/mol)_298.15K_1.00E+00atm> (1)
20.0478604173581

>  <r_j_Free_Energy_(kcal/mol)_298.15K_1.00E+00atm> (1)
-37.2178954481112

>  <r_j_Internal_Energy_(kcal/mol)_298.15K_1.00E+00atm> (1)
19.4553748285308

>  <r_j_Heat_Capacity_(cal/mol/K)_298.15K_1.00E+00atm> (1)
118.520398309578

>  <r_j_ln(Q)_298.15K_1.00E+00atm> (1)
62.8165412795571

>  <r_j_Total_Internal_Energy_(au)_298.15K_1.00E+00atm> (1)
-1093.69605028828

>  <r_j_Total_Enthalpy_(au)_298.15K_1.00E+00atm> (1)
-1093.69510610239

>  <r_j_Total_Free_Energy_(au)_298.15K_1.00E+00atm> (1)
-1093.78636489385

>  <r_lp_tautomer_probability> (1)
1

>  <r_epik_Ionization_Penalty> (1)
  0.0000

>  <r_epik_Ionization_Penalty_Charging> (1)
  0.0000

>  <r_epik_Ionization_Penalty_Neutral> (1)
  0.0000

>  <r_epik_State_Penalty> (1)
  0.0000

>  <r_epik_Charging_Adjusted_Penalty> (1)
0

>  <i_epik_Tot_Q> (1)
0

>  <i_epik_Tot_abs_Q> (1)
0

>  <s_lp_Force_Field> (1)
S-OPLS

>  <r_lp_Energy> (1)
11.051383

>  <b_lp_Chiralities_Consistent> (1)
1

>  <s_epik_Chemistry_Notes> (1)
This compound has an ester and may undergo hydrolysis at high or low pH.

$$$$
