222_Ammonia
                    3D
 Schrodinger Suite 2021-3.
  4  3  0  0  1  0            999 V2000
    2.5369    0.1550    0.0000 N   0  0  0  0  0  0
    3.4022    0.6546    0.0000 H   0  0  0  0  0  0
    1.6716    0.6547    0.0000 H   0  0  0  0  0  0
    2.5369   -0.8442    0.0000 H   0  0  0  0  0  0
  1  2  1  0  0  0
  1  3  1  0  0  0
  1  4  1  0  0  0
M  END
>  <i_m_Spin_multiplicity> (1)
1

>  <s_j_Task> (1)
Single Point

>  <s_j_QM_Method> (1)
DFT(b3lyp-d3)

>  <s_j_QM_Basis> (1)
cc-pvtz(-f)

>  <i_j_Number_of_canonical_orbitals> (1)
50

>  <r_j_Gas_Phase_Energy> (1)
-56.5745481994334

>  <r_j_Final_Energy> (1)
-56.5745481994334

>  <r_j_Polarizability> (1)
10.0602999167368

>  <r_j_QM_Dipole_(debye)> (1)
0.000103720437735513

>  <r_j_QM_Dipole_X_(debye)> (1)
2.25550348446414e-05

>  <r_j_QM_Dipole_Y_(debye)> (1)
0.000101238328674193

>  <r_j_QM_Dipole_Z_(debye)> (1)
2.03582823723488e-08

>  <r_j_Zero_Point_Energy_(kcal/mol)> (1)
20.4910570594372

>  <r_j_Entropy_(cal/mol/K)_298.15K_1.00E+00atm> (1)
44.4095628537941

>  <r_j_Enthalpy_(kcal/mol)_298.15K_1.00E+00atm> (1)
2.37424328156898

>  <r_j_Free_Energy_(kcal/mol)_298.15K_1.00E+00atm> (1)
-10.8664678832897

>  <r_j_Internal_Energy_(kcal/mol)_298.15K_1.00E+00atm> (1)
1.7817576927417

>  <r_j_Heat_Capacity_(cal/mol/K)_298.15K_1.00E+00atm> (1)
6.07211028460317

>  <r_j_ln(Q)_298.15K_1.00E+00atm> (1)
18.3404762718332

>  <r_j_Total_Internal_Energy_(au)_298.15K_1.00E+00atm> (1)
-56.5390542095942

>  <r_j_Total_Enthalpy_(au)_298.15K_1.00E+00atm> (1)
-56.538110023702

>  <r_j_Total_Free_Energy_(au)_298.15K_1.00E+00atm> (1)
-56.5592104401863

>  <r_j_HOMO> (1)
-0.230936395698136

>  <r_j_LUMO> (1)
0.0372696802604177

>  <r_j_Lowest_Frequency_(cm-1)> (1)
-836.540040065386

>  <r_j_Highest_Frequency_(cm-1)> (1)
3787.10542584506

>  <r_j_2nd_Lowest_Frequency_(cm-1)> (1)
1586.16988034085

>  <i_j_Num_Negative_Frequencies> (1)
1

>  <i_j_Geometry_convergence_category> (1)
0

$$$$
