22386_2-Pentanol
                    3D
 Schrodinger Suite 2021-3.
 18 17  0  0  1  0            999 V2000
   -2.0362    1.4945   -0.0063 C   0  0  0  0  0  0
   -0.5056    1.4485    0.0060 C   0  0  0  0  0  0
    0.0495    0.0197    0.0115 C   0  0  0  0  0  0
    1.5823   -0.0529   -0.0341 C   0  0  0  0  0  0
    2.0920   -1.4885   -0.0147 C   0  0  0  0  0  0
    2.1755    0.5925    1.0980 O   0  0  0  0  0  0
   -2.4083    2.5241   -0.0010 H   0  0  0  0  0  0
   -2.4507    0.9840    0.8702 H   0  0  0  0  0  0
   -2.4370    0.9980   -0.8973 H   0  0  0  0  0  0
   -0.1143    1.9890   -0.8678 H   0  0  0  0  0  0
   -0.1396    1.9820    0.8936 H   0  0  0  0  0  0
   -0.2955   -0.5049    0.9125 H   0  0  0  0  0  0
   -0.3526   -0.5296   -0.8511 H   0  0  0  0  0  0
    1.9259    0.4349   -0.9640 H   0  0  0  0  0  0
    1.7055   -2.0522   -0.8692 H   0  0  0  0  0  0
    1.7706   -1.9851    0.9065 H   0  0  0  0  0  0
    3.1846   -1.5031   -0.0465 H   0  0  0  0  0  0
    1.9920    1.5378    1.0326 H   0  0  0  0  0  0
  1  2  1  0  0  0
  1  7  1  0  0  0
  1  8  1  0  0  0
  1  9  1  0  0  0
  2  3  1  0  0  0
  2 10  1  0  0  0
  2 11  1  0  0  0
  3  4  1  0  0  0
  3 12  1  0  0  0
  3 13  1  0  0  0
  4  5  1  0  0  0
  4  6  1  0  0  0
  4 14  1  0  0  0
  5 15  1  0  0  0
  5 16  1  0  0  0
  5 17  1  0  0  0
  6 18  1  0  0  0
M  END
>  <i_m_Spin_multiplicity> (1)
1

>  <s_j_Task> (1)
Single Point

>  <s_j_QM_Method> (1)
DFT(b3lyp-d3)

>  <s_j_QM_Basis> (1)
cc-pvtz(-f)

>  <i_j_Number_of_canonical_orbitals> (1)
245

>  <i_j_Geometry_convergence_category> (1)
0

>  <r_j_Gas_Phase_Energy> (1)
-273.099836738153

>  <r_j_Final_Energy> (1)
-273.099836738153

>  <r_j_HOMO> (1)
-0.272106730489713

>  <r_j_LUMO> (1)
0.0326347913618863

>  <r_j_Polarizability> (1)
67.0808493047552

>  <r_j_QM_Dipole_(debye)> (1)
1.57228429653617

>  <r_j_QM_Dipole_X_(debye)> (1)
-0.895094742074688

>  <r_j_QM_Dipole_Y_(debye)> (1)
0.710662322057447

>  <r_j_QM_Dipole_Z_(debye)> (1)
-1.07974180981029

>  <r_j_Lowest_Frequency_(cm-1)> (1)
129.415004740025

>  <r_j_Highest_Frequency_(cm-1)> (1)
3774.78417615095

>  <r_j_2nd_Lowest_Frequency_(cm-1)> (1)
152.024205858284

>  <i_j_Num_Negative_Frequencies> (1)
0

>  <r_j_Zero_Point_Energy_(kcal/mol)> (1)
103.41204340826

>  <r_j_Entropy_(cal/mol/K)_298.15K_1.00E+00atm> (1)
83.2302462088762

>  <r_j_Enthalpy_(kcal/mol)_298.15K_1.00E+00atm> (1)
5.36136031661671

>  <r_j_Free_Energy_(kcal/mol)_298.15K_1.00E+00atm> (1)
-19.4537375905597

>  <r_j_Internal_Energy_(kcal/mol)_298.15K_1.00E+00atm> (1)
4.76887472778943

>  <r_j_Heat_Capacity_(cal/mol/K)_298.15K_1.00E+00atm> (1)
28.0094584475124

>  <r_j_ln(Q)_298.15K_1.00E+00atm> (1)
32.8341110018644

>  <r_j_Total_Internal_Energy_(au)_298.15K_1.00E+00atm> (1)
-272.92743947037

>  <r_j_Total_Enthalpy_(au)_298.15K_1.00E+00atm> (1)
-272.926495284478

>  <r_j_Total_Free_Energy_(au)_298.15K_1.00E+00atm> (1)
-272.966040660434

>  <r_lp_tautomer_probability> (1)
1

>  <r_epik_Ionization_Penalty> (1)
  0.0000

>  <r_epik_Ionization_Penalty_Charging> (1)
  0.0000

>  <r_epik_Ionization_Penalty_Neutral> (1)
  0.0000

>  <r_epik_State_Penalty> (1)
  0.0000

>  <r_epik_Charging_Adjusted_Penalty> (1)
0

>  <i_epik_Tot_Q> (1)
0

>  <i_epik_Tot_abs_Q> (1)
0

>  <s_lp_Force_Field> (1)
S-OPLS

>  <r_lp_Energy> (1)
0.148255

>  <b_lp_Chiralities_Consistent> (1)
1

$$$$
