22434_Heneicosanoic acid methyl ester
                    3D
 Schrodinger Suite 2021-3.
 68 67  0  0  1  0            999 V2000
   -3.0615   10.2977    5.5375 C   0  0  0  0  0  0
   -3.4810    9.4722    4.3175 C   0  0  0  0  0  0
   -2.7738    8.1138    4.2374 C   0  0  0  0  0  0
   -3.1937    7.2823    3.0202 C   0  0  0  0  0  0
   -2.4913    5.9225    2.9317 C   0  0  0  0  0  0
   -2.9239    5.0971    1.7145 C   0  0  0  0  0  0
   -2.2268    3.7351    1.6158 C   0  0  0  0  0  0
   -2.6697    2.9234    0.3911 C   0  0  0  0  0  0
   -2.0521    1.5199    0.2958 C   0  0  0  0  0  0
   -0.5279    1.5080    0.1161 C   0  0  0  0  0  0
    0.0342    0.0982   -0.1125 C   0  0  0  0  0  0
    1.5672    0.0284   -0.1922 C   0  0  0  0  0  0
    2.1768    0.8107   -1.3632 C   0  0  0  0  0  0
    3.6928    0.6233   -1.4935 C   0  0  0  0  0  0
    4.3063    1.4400   -2.6365 C   0  0  0  0  0  0
    5.8165    1.2319   -2.7965 C   0  0  0  0  0  0
    6.4264    2.0725   -3.9239 C   0  0  0  0  0  0
    7.9299    1.8413   -4.1117 C   0  0  0  0  0  0
    8.5318    2.7000   -5.2289 C   0  0  0  0  0  0
   10.0363    2.4396   -5.4273 C   0  0  0  0  0  0
   10.6374    3.3168   -6.5034 C   0  0  0  0  0  0
   11.4859    4.1658   -6.3354 O   0  0  0  0  0  0
   10.0857    3.0488   -7.7123 O   0  0  0  0  0  0
   10.5717    3.8575   -8.7970 C   0  0  0  0  0  0
   -3.5803   11.2615    5.5698 H   0  0  0  0  0  0
   -1.9840   10.4989    5.5258 H   0  0  0  0  0  0
   -3.2869    9.7661    6.4693 H   0  0  0  0  0  0
   -4.5678    9.3124    4.3374 H   0  0  0  0  0  0
   -3.2754   10.0407    3.4001 H   0  0  0  0  0  0
   -1.6858    8.2717    4.2141 H   0  0  0  0  0  0
   -2.9768    7.5442    5.1558 H   0  0  0  0  0  0
   -4.2819    7.1269    3.0455 H   0  0  0  0  0  0
   -2.9921    7.8544    2.1030 H   0  0  0  0  0  0
   -1.4031    6.0758    2.9002 H   0  0  0  0  0  0
   -2.6896    5.3496    3.8490 H   0  0  0  0  0  0
   -4.0126    4.9465    1.7469 H   0  0  0  0  0  0
   -2.7264    5.6719    0.7981 H   0  0  0  0  0  0
   -1.1404    3.8912    1.5891 H   0  0  0  0  0  0
   -2.4284    3.1543    2.5278 H   0  0  0  0  0  0
   -3.7642    2.8301    0.4068 H   0  0  0  0  0  0
   -2.4274    3.4872   -0.5215 H   0  0  0  0  0  0
   -2.3158    0.9440    1.1946 H   0  0  0  0  0  0
   -2.5105    0.9883   -0.5493 H   0  0  0  0  0  0
   -0.2666    2.1566   -0.7307 H   0  0  0  0  0  0
   -0.0419    1.9467    0.9978 H   0  0  0  0  0  0
   -0.3097   -0.5560    0.7003 H   0  0  0  0  0  0
   -0.3957   -0.3155   -1.0363 H   0  0  0  0  0  0
    1.9975    0.3968    0.7502 H   0  0  0  0  0  0
    1.8710   -1.0242   -0.2727 H   0  0  0  0  0  0
    1.6907    0.4994   -2.2994 H   0  0  0  0  0  0
    1.9591    1.8807   -1.2502 H   0  0  0  0  0  0
    4.1775    0.9025   -0.5469 H   0  0  0  0  0  0
    3.9165   -0.4424   -1.6449 H   0  0  0  0  0  0
    3.8035    1.1807   -3.5793 H   0  0  0  0  0  0
    4.1021    2.5073   -2.4693 H   0  0  0  0  0  0
    6.3208    1.4728   -1.8497 H   0  0  0  0  0  0
    6.0186    0.1678   -2.9849 H   0  0  0  0  0  0
    5.9059    1.8503   -4.8663 H   0  0  0  0  0  0
    6.2446    3.1377   -3.7216 H   0  0  0  0  0  0
    8.4532    2.0498   -3.1679 H   0  0  0  0  0  0
    8.1102    0.7793   -4.3316 H   0  0  0  0  0  0
    8.0099    2.5063   -6.1729 H   0  0  0  0  0  0
    8.3773    3.7624   -4.9981 H   0  0  0  0  0  0
   10.5914    2.6321   -4.5057 H   0  0  0  0  0  0
   10.1899    1.3904   -5.7078 H   0  0  0  0  0  0
   10.0219    3.5309   -9.6800 H   0  0  0  0  0  0
   11.6459    3.7096   -8.9374 H   0  0  0  0  0  0
   10.3890    4.9173   -8.6001 H   0  0  0  0  0  0
  1  2  1  0  0  0
  1 25  1  0  0  0
  1 26  1  0  0  0
  1 27  1  0  0  0
  2  3  1  0  0  0
  2 28  1  0  0  0
  2 29  1  0  0  0
  3  4  1  0  0  0
  3 30  1  0  0  0
  3 31  1  0  0  0
  4  5  1  0  0  0
  4 32  1  0  0  0
  4 33  1  0  0  0
  5  6  1  0  0  0
  5 34  1  0  0  0
  5 35  1  0  0  0
  6  7  1  0  0  0
  6 36  1  0  0  0
  6 37  1  0  0  0
  7  8  1  0  0  0
  7 38  1  0  0  0
  7 39  1  0  0  0
  8  9  1  0  0  0
  8 40  1  0  0  0
  8 41  1  0  0  0
  9 10  1  0  0  0
  9 42  1  0  0  0
  9 43  1  0  0  0
 10 11  1  0  0  0
 10 44  1  0  0  0
 10 45  1  0  0  0
 11 12  1  0  0  0
 11 46  1  0  0  0
 11 47  1  0  0  0
 12 13  1  0  0  0
 12 48  1  0  0  0
 12 49  1  0  0  0
 13 14  1  0  0  0
 13 50  1  0  0  0
 13 51  1  0  0  0
 14 15  1  0  0  0
 14 52  1  0  0  0
 14 53  1  0  0  0
 15 16  1  0  0  0
 15 54  1  0  0  0
 15 55  1  0  0  0
 16 17  1  0  0  0
 16 56  1  0  0  0
 16 57  1  0  0  0
 17 18  1  0  0  0
 17 58  1  0  0  0
 17 59  1  0  0  0
 18 19  1  0  0  0
 18 60  1  0  0  0
 18 61  1  0  0  0
 19 20  1  0  0  0
 19 62  1  0  0  0
 19 63  1  0  0  0
 20 21  1  0  0  0
 20 64  1  0  0  0
 20 65  1  0  0  0
 21 22  2  0  0  0
 21 23  1  0  0  0
 23 24  1  0  0  0
 24 66  1  0  0  0
 24 67  1  0  0  0
 24 68  1  0  0  0
M  END
>  <i_m_Spin_multiplicity> (1)
1

>  <s_j_Task> (1)
Single Point

>  <s_j_QM_Method> (1)
DFT(b3lyp-d3)

>  <s_j_QM_Basis> (1)
cc-pvtz(-f)

>  <i_j_Number_of_canonical_orbitals> (1)
941

>  <i_j_Geometry_convergence_category> (1)
3

>  <r_j_Gas_Phase_Energy> (1)
-1015.75135814345

>  <r_j_Final_Energy> (1)
-1015.75135814345

>  <r_j_HOMO> (1)
-0.220279675601939

>  <r_j_LUMO> (1)
0.0424810196899212

>  <r_j_Polarizability> (1)
279.164903220466

>  <r_j_QM_Dipole_(debye)> (1)
2.09311283092926

>  <r_j_QM_Dipole_X_(debye)> (1)
-1.63944462069531

>  <r_j_QM_Dipole_Y_(debye)> (1)
-1.10560820519474

>  <r_j_QM_Dipole_Z_(debye)> (1)
-0.686274839462989

>  <r_j_Lowest_Frequency_(cm-1)> (1)
16.8166012188253

>  <r_j_Highest_Frequency_(cm-1)> (1)
3106.1607125302

>  <r_j_2nd_Lowest_Frequency_(cm-1)> (1)
30.3517389186083

>  <i_j_Num_Negative_Frequencies> (1)
0

>  <r_j_Zero_Point_Energy_(kcal/mol)> (1)
396.141066433591

>  <r_j_Entropy_(cal/mol/K)_298.15K_1.00E+00atm> (1)
183.167113238167

>  <r_j_Enthalpy_(kcal/mol)_298.15K_1.00E+00atm> (1)
18.606181816978

>  <r_j_Free_Energy_(kcal/mol)_298.15K_1.00E+00atm> (1)
-36.0050929949816

>  <r_j_Internal_Energy_(kcal/mol)_298.15K_1.00E+00atm> (1)
18.0136962281507

>  <r_j_Heat_Capacity_(cal/mol/K)_298.15K_1.00E+00atm> (1)
109.037613854763

>  <r_j_ln(Q)_298.15K_1.00E+00atm> (1)
60.769567520195

>  <r_j_Total_Internal_Energy_(au)_298.15K_1.00E+00atm> (1)
-1015.09136051399

>  <r_j_Total_Enthalpy_(au)_298.15K_1.00E+00atm> (1)
-1015.0904163281

>  <r_j_Total_Free_Energy_(au)_298.15K_1.00E+00atm> (1)
-1015.17744493472

>  <r_lp_tautomer_probability> (1)
1

>  <r_epik_Ionization_Penalty> (1)
  0.0000

>  <r_epik_Ionization_Penalty_Charging> (1)
  0.0000

>  <r_epik_Ionization_Penalty_Neutral> (1)
  0.0000

>  <r_epik_State_Penalty> (1)
  0.0000

>  <r_epik_Charging_Adjusted_Penalty> (1)
0

>  <i_epik_Tot_Q> (1)
0

>  <i_epik_Tot_abs_Q> (1)
0

>  <s_lp_Force_Field> (1)
S-OPLS

>  <r_lp_Energy> (1)
11.877853

>  <b_lp_Chiralities_Consistent> (1)
1

>  <s_epik_Chemistry_Notes> (1)
This compound has an ester and may undergo hydrolysis at high or low pH.

$$$$
