225689_Beta-Amyrin
                    3D
 Schrodinger Suite 2021-3.
 81 85  0  0  1  0            999 V2000
    0.2068   -0.1894    1.0517 C   0  0  0  0  0  0
    1.5531   -0.0675    0.3164 C   0  0  0  0  0  0
    1.3143   -0.1468   -1.2023 C   0  0  0  0  0  0
    2.6102    0.0036   -1.9989 C   0  0  0  0  0  0
    3.8856   -0.7907   -1.5281 C   0  0  0  0  0  0
    4.1703   -1.9487   -2.5088 C   0  0  0  0  0  0
    5.4617   -2.7370   -2.2098 C   0  0  0  0  0  0
    5.6275   -3.1611   -0.7044 C   0  0  0  0  0  0
    4.2602   -2.8968   -0.0595 C   0  0  0  0  0  0
    3.4879   -3.9145    0.3483 C   0  0  0  0  0  0
    3.7803   -5.3744    0.1440 C   0  0  0  0  0  0
    4.8735   -5.6084   -0.9108 C   0  0  0  0  0  0
    6.0886   -4.6906   -0.5416 C   0  0  0  0  0  0
    7.2932   -4.9959   -1.4670 C   0  0  0  0  0  0
    7.5794   -6.4932   -1.6615 C   0  0  0  0  0  0
    6.3846   -7.3379   -2.1680 C   0  0  0  0  0  0
    5.1497   -7.1351   -1.2086 C   0  0  0  0  0  0
    3.8730   -7.7819   -1.8242 C   0  0  0  0  0  0
    3.6539   -7.5089   -3.3097 C   0  0  0  0  0  0
    4.8494   -8.0384   -4.0864 C   0  0  0  0  0  0
    6.1597   -7.2728   -3.7323 C   0  0  0  0  0  0
    6.0904   -5.8655   -4.3522 C   0  0  0  0  0  0
    7.3331   -8.0158   -4.4138 C   0  0  0  0  0  0
    4.5203   -7.9734   -5.4750 O   0  0  0  0  0  0
    5.4328   -7.9660    0.0726 C   0  0  0  0  0  0
    6.5396   -4.9287    0.9250 C   0  0  0  0  0  0
    3.7897   -1.4226   -0.0484 C   0  0  0  0  0  0
    2.4135   -1.2943    0.6531 C   0  0  0  0  0  0
    6.6976   -2.2689   -0.0204 C   0  0  0  0  0  0
    5.0347    0.2437   -1.6468 C   0  0  0  0  0  0
    2.2208    1.2527    0.7393 C   0  0  0  0  0  0
   -0.4456    0.6584    0.8128 H   0  0  0  0  0  0
    0.3489   -0.2073    2.1385 H   0  0  0  0  0  0
   -0.3205   -1.1075    0.7677 H   0  0  0  0  0  0
    0.8309   -1.1085   -1.4222 H   0  0  0  0  0  0
    0.6096    0.6325   -1.5224 H   0  0  0  0  0  0
    2.4207   -0.2434   -3.0507 H   0  0  0  0  0  0
    2.8580    1.0703   -1.9973 H   0  0  0  0  0  0
    3.3171   -2.6388   -2.4896 H   0  0  0  0  0  0
    4.2291   -1.5554   -3.5319 H   0  0  0  0  0  0
    5.4394   -3.6195   -2.8479 H   0  0  0  0  0  0
    6.3376   -2.1637   -2.5339 H   0  0  0  0  0  0
    2.5359   -3.7220    0.8288 H   0  0  0  0  0  0
    4.0498   -5.8400    1.1007 H   0  0  0  0  0  0
    2.8424   -5.8563   -0.1542 H   0  0  0  0  0  0
    4.4736   -5.2089   -1.8499 H   0  0  0  0  0  0
    7.1440   -4.5352   -2.4404 H   0  0  0  0  0  0
    8.1959   -4.5287   -1.0564 H   0  0  0  0  0  0
    8.4312   -6.6000   -2.3413 H   0  0  0  0  0  0
    7.9210   -6.9153   -0.7097 H   0  0  0  0  0  0
    6.6728   -8.3875   -2.0108 H   0  0  0  0  0  0
    3.9543   -8.8703   -1.7026 H   0  0  0  0  0  0
    2.9903   -7.4933   -1.2470 H   0  0  0  0  0  0
    2.7516   -8.0200   -3.6619 H   0  0  0  0  0  0
    3.5087   -6.4430   -3.5169 H   0  0  0  0  0  0
    4.9947   -9.0945   -3.7949 H   0  0  0  0  0  0
    5.8248   -5.9507   -5.4083 H   0  0  0  0  0  0
    7.0515   -5.3510   -4.2848 H   0  0  0  0  0  0
    5.3345   -5.2379   -3.8807 H   0  0  0  0  0  0
    7.2262   -7.9991   -5.5049 H   0  0  0  0  0  0
    7.3877   -9.0627   -4.0927 H   0  0  0  0  0  0
    8.2960   -7.5478   -4.1931 H   0  0  0  0  0  0
    5.2056   -8.4404   -5.9690 H   0  0  0  0  0  0
    5.4950   -9.0282   -0.1874 H   0  0  0  0  0  0
    4.6310   -7.8622    0.8086 H   0  0  0  0  0  0
    6.3700   -7.7081    0.5646 H   0  0  0  0  0  0
    6.6593   -5.9866    1.1459 H   0  0  0  0  0  0
    5.8260   -4.5214    1.6445 H   0  0  0  0  0  0
    7.5062   -4.4581    1.1169 H   0  0  0  0  0  0
    4.4991   -0.8539    0.5646 H   0  0  0  0  0  0
    2.5704   -1.3702    1.7369 H   0  0  0  0  0  0
    1.7899   -2.1482    0.3764 H   0  0  0  0  0  0
    7.6937   -2.4895   -0.4152 H   0  0  0  0  0  0
    6.7174   -2.4156    1.0610 H   0  0  0  0  0  0
    6.5183   -1.2111   -0.1848 H   0  0  0  0  0  0
    6.0315   -0.1849   -1.5656 H   0  0  0  0  0  0
    4.9474    1.0255   -0.8848 H   0  0  0  0  0  0
    4.9850    0.7324   -2.6267 H   0  0  0  0  0  0
    3.2151    1.3784    0.3061 H   0  0  0  0  0  0
    2.3313    1.2900    1.8289 H   0  0  0  0  0  0
    1.6138    2.1137    0.4357 H   0  0  0  0  0  0
  1  2  1  0  0  0
  1 32  1  0  0  0
  1 33  1  0  0  0
  1 34  1  0  0  0
  2 28  1  0  0  0
  2  3  1  0  0  0
  2 31  1  0  0  0
  3  4  1  0  0  0
  3 35  1  0  0  0
  3 36  1  0  0  0
  4  5  1  0  0  0
  4 37  1  0  0  0
  4 38  1  0  0  0
  5 27  1  0  0  0
  5  6  1  0  0  0
  5 30  1  0  0  0
  6  7  1  0  0  0
  6 39  1  0  0  0
  6 40  1  0  0  0
  7  8  1  0  0  0
  7 41  1  0  0  0
  7 42  1  0  0  0
  8 13  1  0  0  0
  8  9  1  0  0  0
  8 29  1  0  0  0
  9 10  2  0  0  0
  9 27  1  0  0  0
 10 11  1  0  0  0
 10 43  1  0  0  0
 11 12  1  0  0  0
 11 44  1  0  0  0
 11 45  1  0  0  0
 12 17  1  0  0  0
 12 13  1  0  0  0
 12 46  1  0  0  0
 13 14  1  0  0  0
 13 26  1  0  0  0
 14 15  1  0  0  0
 14 47  1  0  0  0
 14 48  1  0  0  0
 15 16  1  0  0  0
 15 49  1  0  0  0
 15 50  1  0  0  0
 16 21  1  0  0  0
 16 17  1  0  0  0
 16 51  1  0  0  0
 17 18  1  0  0  0
 17 25  1  0  0  0
 18 19  1  0  0  0
 18 52  1  0  0  0
 18 53  1  0  0  0
 19 20  1  0  0  0
 19 54  1  0  0  0
 19 55  1  0  0  0
 20 21  1  0  0  0
 20 24  1  0  0  0
 20 56  1  0  0  0
 21 22  1  0  0  0
 21 23  1  0  0  0
 22 57  1  0  0  0
 22 58  1  0  0  0
 22 59  1  0  0  0
 23 60  1  0  0  0
 23 61  1  0  0  0
 23 62  1  0  0  0
 24 63  1  0  0  0
 25 64  1  0  0  0
 25 65  1  0  0  0
 25 66  1  0  0  0
 26 67  1  0  0  0
 26 68  1  0  0  0
 26 69  1  0  0  0
 27 28  1  0  0  0
 27 70  1  0  0  0
 28 71  1  0  0  0
 28 72  1  0  0  0
 29 73  1  0  0  0
 29 74  1  0  0  0
 29 75  1  0  0  0
 30 76  1  0  0  0
 30 77  1  0  0  0
 30 78  1  0  0  0
 31 79  1  0  0  0
 31 80  1  0  0  0
 31 81  1  0  0  0
M  END
>  <i_m_Spin_multiplicity> (1)
1

>  <s_j_Task> (1)
Single Point

>  <s_j_QM_Method> (1)
DFT(b3lyp-d3)

>  <s_j_QM_Basis> (1)
cc-pvtz(-f)

>  <i_j_Number_of_canonical_orbitals> (1)
1138

>  <i_j_Geometry_convergence_category> (1)
3

>  <r_j_Gas_Phase_Energy> (1)
-1249.00516003095

>  <r_j_Final_Energy> (1)
-1249.00516003095

>  <r_j_HOMO> (1)
-0.245980879804634

>  <r_j_LUMO> (1)
-0.00258173015818193

>  <r_j_Polarizability> (1)
334.341946249474

>  <r_j_QM_Dipole_(debye)> (1)
1.33402046424812

>  <r_j_QM_Dipole_X_(debye)> (1)
1.16522529395108

>  <r_j_QM_Dipole_Y_(debye)> (1)
-0.597373388858701

>  <r_j_QM_Dipole_Z_(debye)> (1)
0.254962051397546

>  <r_j_Lowest_Frequency_(cm-1)> (1)
45.3023486537421

>  <r_j_Highest_Frequency_(cm-1)> (1)
3772.19946724585

>  <r_j_2nd_Lowest_Frequency_(cm-1)> (1)
63.8418353358706

>  <i_j_Num_Negative_Frequencies> (1)
0

>  <r_j_Zero_Point_Energy_(kcal/mol)> (1)
470.009614904168

>  <r_j_Entropy_(cal/mol/K)_298.15K_1.00E+00atm> (1)
170.541046335448

>  <r_j_Enthalpy_(kcal/mol)_298.15K_1.00E+00atm> (1)
18.6756420697817

>  <r_j_Free_Energy_(kcal/mol)_298.15K_1.00E+00atm> (1)
-32.1711708951321

>  <r_j_Internal_Energy_(kcal/mol)_298.15K_1.00E+00atm> (1)
18.0831564809544

>  <r_j_Heat_Capacity_(cal/mol/K)_298.15K_1.00E+00atm> (1)
129.240861073758

>  <r_j_ln(Q)_298.15K_1.00E+00atm> (1)
54.2986555315371

>  <r_j_Total_Internal_Energy_(au)_298.15K_1.00E+00atm> (1)
-1248.22733468373

>  <r_j_Total_Enthalpy_(au)_298.15K_1.00E+00atm> (1)
-1248.22639049784

>  <r_j_Total_Free_Energy_(au)_298.15K_1.00E+00atm> (1)
-1248.3074200526

>  <r_lp_tautomer_probability> (1)
1

>  <r_epik_Ionization_Penalty> (1)
  0.0000

>  <r_epik_Ionization_Penalty_Charging> (1)
  0.0000

>  <r_epik_Ionization_Penalty_Neutral> (1)
  0.0000

>  <r_epik_State_Penalty> (1)
  0.0000

>  <r_epik_Charging_Adjusted_Penalty> (1)
0

>  <i_epik_Tot_Q> (1)
0

>  <i_epik_Tot_abs_Q> (1)
0

>  <s_lp_Force_Field> (1)
S-OPLS

>  <r_lp_Energy> (1)
115.513

>  <b_lp_Chiralities_Consistent> (1)
1

$$$$
