23151_4,7-dimethyl-2,3,dihydro-1-h-indenes
                    3D
 Schrodinger Suite 2021-3.
 25 26  0  0  1  0            999 V2000
   -0.0459    0.0258    0.0191 C   0  0  0  0  0  0
    1.4628   -0.0024    0.0162 C   0  0  0  0  0  0
    2.2084    1.1811   -0.0335 C   0  0  0  0  0  0
    1.6948    2.6049   -0.0683 C   0  0  0  0  0  0
    2.9375    3.4191   -0.5077 C   0  0  0  0  0  0
    4.1556    2.5739   -0.0579 C   0  0  0  0  0  0
    3.6062    1.1634   -0.0276 C   0  0  0  0  0  0
    4.3215   -0.0387    0.0273 C   0  0  0  0  0  0
    3.5754   -1.2219    0.0647 C   0  0  0  0  0  0
    2.1786   -1.2039    0.0592 C   0  0  0  0  0  0
    5.8303   -0.0489    0.0415 C   0  0  0  0  0  0
   -0.4327    0.5883    0.8773 H   0  0  0  0  0  0
   -0.4657   -0.9832    0.0631 H   0  0  0  0  0  0
   -0.4388    0.5140   -0.8811 H   0  0  0  0  0  0
    0.8411    2.7397   -0.7418 H   0  0  0  0  0  0
    1.3528    2.9095    0.9318 H   0  0  0  0  0  0
    2.9432    3.5006   -1.6002 H   0  0  0  0  0  0
    2.9487    4.4352   -0.1036 H   0  0  0  0  0  0
    5.0180    2.6873   -0.7239 H   0  0  0  0  0  0
    4.4964    2.8697    0.9452 H   0  0  0  0  0  0
    4.0947   -2.1768    0.0983 H   0  0  0  0  0  0
    1.6352   -2.1451    0.0890 H   0  0  0  0  0  0
    6.2239   -1.0677    0.0995 H   0  0  0  0  0  0
    6.2255    0.5134    0.8959 H   0  0  0  0  0  0
    6.2417    0.4188   -0.8613 H   0  0  0  0  0  0
  1  2  1  0  0  0
  1 12  1  0  0  0
  1 13  1  0  0  0
  1 14  1  0  0  0
  2 10  1  0  0  0
  2  3  2  0  0  0
  3  7  1  0  0  0
  3  4  1  0  0  0
  4  5  1  0  0  0
  4 15  1  0  0  0
  4 16  1  0  0  0
  5  6  1  0  0  0
  5 17  1  0  0  0
  5 18  1  0  0  0
  6  7  1  0  0  0
  6 19  1  0  0  0
  6 20  1  0  0  0
  7  8  2  0  0  0
  8  9  1  0  0  0
  8 11  1  0  0  0
  9 10  2  0  0  0
  9 21  1  0  0  0
 10 22  1  0  0  0
 11 23  1  0  0  0
 11 24  1  0  0  0
 11 25  1  0  0  0
M  END
>  <i_m_Spin_multiplicity> (1)
1

>  <s_j_Task> (1)
Single Point

>  <s_j_QM_Method> (1)
DFT(b3lyp-d3)

>  <s_j_QM_Basis> (1)
cc-pvtz(-f)

>  <i_j_Number_of_canonical_orbitals> (1)
371

>  <i_j_Geometry_convergence_category> (1)
0

>  <r_j_Gas_Phase_Energy> (1)
-427.77550315127

>  <r_j_Final_Energy> (1)
-427.77550315127

>  <r_j_HOMO> (1)
-0.226718845600596

>  <r_j_LUMO> (1)
0.0013616133373084

>  <r_j_Polarizability> (1)
123.691410128872

>  <r_j_QM_Dipole_(debye)> (1)
0.61846213618964

>  <r_j_QM_Dipole_X_(debye)> (1)
0.00863610422356333

>  <r_j_QM_Dipole_Y_(debye)> (1)
0.618371865967074

>  <r_j_QM_Dipole_Z_(debye)> (1)
0.00608826613183313

>  <r_j_Lowest_Frequency_(cm-1)> (1)
143.113630533604

>  <r_j_Highest_Frequency_(cm-1)> (1)
3125.51834670145

>  <r_j_2nd_Lowest_Frequency_(cm-1)> (1)
172.164503519641

>  <i_j_Num_Negative_Frequencies> (1)
0

>  <r_j_Zero_Point_Energy_(kcal/mol)> (1)
137.149833027027

>  <r_j_Entropy_(cal/mol/K)_298.15K_1.00E+00atm> (1)
94.6156170176945

>  <r_j_Enthalpy_(kcal/mol)_298.15K_1.00E+00atm> (1)
6.7345365319561

>  <r_j_Free_Energy_(kcal/mol)_298.15K_1.00E+00atm> (1)
-21.4751096818695

>  <r_j_Internal_Energy_(kcal/mol)_298.15K_1.00E+00atm> (1)
6.14205094312883

>  <r_j_Heat_Capacity_(cal/mol/K)_298.15K_1.00E+00atm> (1)
39.6684425574468

>  <r_j_ln(Q)_298.15K_1.00E+00atm> (1)
36.2457924493588

>  <r_j_Total_Internal_Energy_(au)_298.15K_1.00E+00atm> (1)
-427.547152997494

>  <r_j_Total_Enthalpy_(au)_298.15K_1.00E+00atm> (1)
-427.546208811602

>  <r_j_Total_Free_Energy_(au)_298.15K_1.00E+00atm> (1)
-427.591163744654

>  <r_lp_tautomer_probability> (1)
1

>  <r_epik_Ionization_Penalty> (1)
  0.0000

>  <r_epik_Ionization_Penalty_Charging> (1)
  0.0000

>  <r_epik_Ionization_Penalty_Neutral> (1)
  0.0000

>  <r_epik_State_Penalty> (1)
  0.0000

>  <r_epik_Charging_Adjusted_Penalty> (1)
0

>  <i_epik_Tot_Q> (1)
0

>  <i_epik_Tot_abs_Q> (1)
0

>  <s_lp_Force_Field> (1)
S-OPLS

>  <r_lp_Energy> (1)
10.3283

>  <b_lp_Chiralities_Consistent> (1)
1

$$$$
