23250_Hexadecylcyclohexane
                    3D
 Schrodinger Suite 2021-3.
 66 66  0  0  1  0            999 V2000
   -0.8574    8.2392   -4.0077 C   0  0  0  0  0  0
   -0.3525    6.7971   -3.9034 C   0  0  0  0  0  0
   -0.7412    6.1152   -2.5860 C   0  0  0  0  0  0
   -0.2350    4.6726   -2.4808 C   0  0  0  0  0  0
   -0.6138    3.9759   -1.1687 C   0  0  0  0  0  0
   -0.0935    2.5363   -1.0864 C   0  0  0  0  0  0
   -0.4559    1.8233    0.2232 C   0  0  0  0  0  0
   -0.0094    0.3532    0.2805 C   0  0  0  0  0  0
    1.5120    0.1534    0.2900 C   0  0  0  0  0  0
    1.9320   -1.3209    0.3040 C   0  0  0  0  0  0
    3.4529   -1.5154    0.3133 C   0  0  0  0  0  0
    3.8843   -2.9827    0.2089 C   0  0  0  0  0  0
    5.4081   -3.1632    0.2236 C   0  0  0  0  0  0
    5.8805   -4.6197    0.0942 C   0  0  0  0  0  0
    5.5526   -5.2708   -1.2571 C   0  0  0  0  0  0
    6.1506   -6.6759   -1.4021 C   0  0  0  0  0  0
    5.7568   -7.4237   -2.6875 C   0  0  0  0  0  0
    6.2530   -6.7205   -3.9665 C   0  0  0  0  0  0
    5.8804   -7.4987   -5.2385 C   0  0  0  0  0  0
    6.3939   -8.9448   -5.1861 C   0  0  0  0  0  0
    5.8913   -9.6592   -3.9230 C   0  0  0  0  0  0
    6.2668   -8.8777   -2.6552 C   0  0  0  0  0  0
   -0.5657    8.7006   -4.9570 H   0  0  0  0  0  0
   -0.4533    8.8578   -3.1980 H   0  0  0  0  0  0
   -1.9506    8.2801   -3.9388 H   0  0  0  0  0  0
   -0.7450    6.2081   -4.7437 H   0  0  0  0  0  0
    0.7411    6.7817   -4.0081 H   0  0  0  0  0  0
   -0.3489    6.7025   -1.7432 H   0  0  0  0  0  0
   -1.8356    6.1275   -2.4794 H   0  0  0  0  0  0
   -0.6269    4.0888   -3.3262 H   0  0  0  0  0  0
    0.8591    4.6645   -2.5912 H   0  0  0  0  0  0
   -0.2207    4.5553   -0.3209 H   0  0  0  0  0  0
   -1.7075    3.9779   -1.0557 H   0  0  0  0  0  0
   -0.4930    1.9580   -1.9324 H   0  0  0  0  0  0
    0.9964    2.5479   -1.2166 H   0  0  0  0  0  0
   -0.0178    2.3716    1.0697 H   0  0  0  0  0  0
   -1.5446    1.8713    0.3620 H   0  0  0  0  0  0
   -0.4338   -0.1179    1.1774 H   0  0  0  0  0  0
   -0.4390   -0.1856   -0.5765 H   0  0  0  0  0  0
    1.9573    0.6346   -0.5904 H   0  0  0  0  0  0
    1.9387    0.6664    1.1641 H   0  0  0  0  0  0
    1.4927   -1.8231    1.1778 H   0  0  0  0  0  0
    1.5081   -1.8229   -0.5778 H   0  0  0  0  0  0
    3.8936   -0.9533   -0.5228 H   0  0  0  0  0  0
    3.8719   -1.0723    1.2282 H   0  0  0  0  0  0
    3.4430   -3.5575    1.0360 H   0  0  0  0  0  0
    3.4661   -3.4077   -0.7129 H   0  0  0  0  0  0
    5.8488   -2.5698   -0.5907 H   0  0  0  0  0  0
    5.8048   -2.7383    1.1557 H   0  0  0  0  0  0
    6.9680   -4.6545    0.2466 H   0  0  0  0  0  0
    5.4421   -5.2205    0.9040 H   0  0  0  0  0  0
    4.4644   -5.3316   -1.3902 H   0  0  0  0  0  0
    5.9223   -4.6194   -2.0598 H   0  0  0  0  0  0
    7.2476   -6.6120   -1.3472 H   0  0  0  0  0  0
    5.8411   -7.2805   -0.5374 H   0  0  0  0  0  0
    4.6558   -7.4590   -2.7340 H   0  0  0  0  0  0
    5.8495   -5.7036   -4.0252 H   0  0  0  0  0  0
    7.3476   -6.6198   -3.9092 H   0  0  0  0  0  0
    4.7861   -7.5099   -5.3443 H   0  0  0  0  0  0
    6.2735   -6.9846   -6.1239 H   0  0  0  0  0  0
    6.0873   -9.4932   -6.0849 H   0  0  0  0  0  0
    7.4934   -8.9370   -5.1821 H   0  0  0  0  0  0
    4.7974   -9.7565   -3.9758 H   0  0  0  0  0  0
    6.2932  -10.6783   -3.8732 H   0  0  0  0  0  0
    7.3622   -8.8639   -2.5511 H   0  0  0  0  0  0
    5.8773   -9.3882   -1.7651 H   0  0  0  0  0  0
  1  2  1  0  0  0
  1 23  1  0  0  0
  1 24  1  0  0  0
  1 25  1  0  0  0
  2  3  1  0  0  0
  2 26  1  0  0  0
  2 27  1  0  0  0
  3  4  1  0  0  0
  3 28  1  0  0  0
  3 29  1  0  0  0
  4  5  1  0  0  0
  4 30  1  0  0  0
  4 31  1  0  0  0
  5  6  1  0  0  0
  5 32  1  0  0  0
  5 33  1  0  0  0
  6  7  1  0  0  0
  6 34  1  0  0  0
  6 35  1  0  0  0
  7  8  1  0  0  0
  7 36  1  0  0  0
  7 37  1  0  0  0
  8  9  1  0  0  0
  8 38  1  0  0  0
  8 39  1  0  0  0
  9 10  1  0  0  0
  9 40  1  0  0  0
  9 41  1  0  0  0
 10 11  1  0  0  0
 10 42  1  0  0  0
 10 43  1  0  0  0
 11 12  1  0  0  0
 11 44  1  0  0  0
 11 45  1  0  0  0
 12 13  1  0  0  0
 12 46  1  0  0  0
 12 47  1  0  0  0
 13 14  1  0  0  0
 13 48  1  0  0  0
 13 49  1  0  0  0
 14 15  1  0  0  0
 14 50  1  0  0  0
 14 51  1  0  0  0
 15 16  1  0  0  0
 15 52  1  0  0  0
 15 53  1  0  0  0
 16 17  1  0  0  0
 16 54  1  0  0  0
 16 55  1  0  0  0
 17 22  1  0  0  0
 17 18  1  0  0  0
 17 56  1  0  0  0
 18 19  1  0  0  0
 18 57  1  0  0  0
 18 58  1  0  0  0
 19 20  1  0  0  0
 19 59  1  0  0  0
 19 60  1  0  0  0
 20 21  1  0  0  0
 20 61  1  0  0  0
 20 62  1  0  0  0
 21 22  1  0  0  0
 21 63  1  0  0  0
 21 64  1  0  0  0
 22 65  1  0  0  0
 22 66  1  0  0  0
M  END
>  <i_m_Spin_multiplicity> (1)
1

>  <s_j_Task> (1)
Single Point

>  <s_j_QM_Method> (1)
DFT(b3lyp-d3)

>  <s_j_QM_Basis> (1)
cc-pvtz(-f)

>  <i_j_Number_of_canonical_orbitals> (1)
894

>  <i_j_Geometry_convergence_category> (1)
3

>  <r_j_Gas_Phase_Energy> (1)
-865.242902975214

>  <r_j_Final_Energy> (1)
-865.242902975214

>  <r_j_HOMO> (1)
-0.263604994809504

>  <r_j_LUMO> (1)
0.0083732064744719

>  <r_j_Polarizability> (1)
268.095755044518

>  <r_j_QM_Dipole_(debye)> (1)
0.0611299812745851

>  <r_j_QM_Dipole_X_(debye)> (1)
-0.0263159587744962

>  <r_j_QM_Dipole_Y_(debye)> (1)
-0.0450225376845903

>  <r_j_QM_Dipole_Z_(debye)> (1)
-0.0318953919061954

>  <r_j_Lowest_Frequency_(cm-1)> (1)
25.6545373469324

>  <r_j_Highest_Frequency_(cm-1)> (1)
3045.52422821159

>  <r_j_2nd_Lowest_Frequency_(cm-1)> (1)
40.64368779851

>  <i_j_Num_Negative_Frequencies> (1)
0

>  <r_j_Zero_Point_Energy_(kcal/mol)> (1)
392.125880078693

>  <r_j_Entropy_(cal/mol/K)_298.15K_1.00E+00atm> (1)
165.968629080982

>  <r_j_Enthalpy_(kcal/mol)_298.15K_1.00E+00atm> (1)
16.3487423140521

>  <r_j_Free_Energy_(kcal/mol)_298.15K_1.00E+00atm> (1)
-33.1348044464428

>  <r_j_Internal_Energy_(kcal/mol)_298.15K_1.00E+00atm> (1)
15.7562567252249

>  <r_j_Heat_Capacity_(cal/mol/K)_298.15K_1.00E+00atm> (1)
99.0829491264409

>  <r_j_ln(Q)_298.15K_1.00E+00atm> (1)
55.9250808311263

>  <r_j_Total_Internal_Energy_(au)_298.15K_1.00E+00atm> (1)
-864.592901411406

>  <r_j_Total_Enthalpy_(au)_298.15K_1.00E+00atm> (1)
-864.591957225514

>  <r_j_Total_Free_Energy_(au)_298.15K_1.00E+00atm> (1)
-864.670814277282

>  <r_lp_tautomer_probability> (1)
1

>  <r_epik_Ionization_Penalty> (1)
  0.0000

>  <r_epik_Ionization_Penalty_Charging> (1)
  0.0000

>  <r_epik_Ionization_Penalty_Neutral> (1)
  0.0000

>  <r_epik_State_Penalty> (1)
  0.0000

>  <r_epik_Charging_Adjusted_Penalty> (1)
0

>  <i_epik_Tot_Q> (1)
0

>  <i_epik_Tot_abs_Q> (1)
0

>  <s_lp_Force_Field> (1)
S-OPLS

>  <r_lp_Energy> (1)
16.247603

>  <b_lp_Chiralities_Consistent> (1)
1

$$$$
