23284_2,2,4-Trimethyl-1,3-pentanediol diisobutryate
                    3D
 Schrodinger Suite 2021-3.
 50 49  0  0  1  0            999 V2000
   -0.0148   -1.7851    1.9981 C   0  0  0  0  0  0
   -0.4228   -0.4062    1.4583 C   0  0  0  0  0  0
   -1.9587   -0.3116    1.4145 C   0  0  0  0  0  0
    0.1528   -0.0734    0.0637 C   0  0  0  0  0  0
    1.7013   -0.0875   -0.1443 C   0  0  0  0  0  0
    2.4342    0.6237    1.0059 C   0  0  0  0  0  0
    2.2180   -1.5304   -0.3266 C   0  0  0  0  0  0
    1.9778    0.6808   -1.4546 C   0  0  0  0  0  0
    3.3832    0.5766   -1.7725 O   0  0  0  0  0  0
    3.9084    1.5672   -2.5308 C   0  0  0  0  0  0
    3.2678    2.5046   -2.9585 O   0  0  0  0  0  0
    5.3988    1.3432   -2.7489 C   0  0  0  0  0  0
    6.1429    1.4184   -1.4011 C   0  0  0  0  0  0
    5.9503    2.3402   -3.7700 C   0  0  0  0  0  0
   -0.3204    1.2837   -0.2083 O   0  0  0  0  0  0
   -1.0059    1.5158   -1.3563 C   0  0  0  0  0  0
   -1.2484    0.6652   -2.1863 O   0  0  0  0  0  0
   -1.3974    2.9826   -1.4607 C   0  0  0  0  0  0
   -2.3082    3.2088   -2.6691 C   0  0  0  0  0  0
   -0.1320    3.8635   -1.5103 C   0  0  0  0  0  0
   -0.2259   -2.5763    1.2698 H   0  0  0  0  0  0
   -0.5862   -2.0105    2.9042 H   0  0  0  0  0  0
    1.0431   -1.8387    2.2615 H   0  0  0  0  0  0
   -0.0566    0.3617    2.1515 H   0  0  0  0  0  0
   -2.3733   -1.0487    0.7167 H   0  0  0  0  0  0
   -2.2946    0.6789    1.1006 H   0  0  0  0  0  0
   -2.3812   -0.5125    2.4041 H   0  0  0  0  0  0
   -0.2996   -0.7354   -0.6817 H   0  0  0  0  0  0
    3.4954    0.7319    0.7662 H   0  0  0  0  0  0
    2.3570    0.0650    1.9426 H   0  0  0  0  0  0
    2.0165    1.6227    1.1685 H   0  0  0  0  0  0
    3.2694   -1.5075   -0.6216 H   0  0  0  0  0  0
    1.6611   -2.0471   -1.1163 H   0  0  0  0  0  0
    2.1411   -2.1226    0.5841 H   0  0  0  0  0  0
    1.3994    0.2659   -2.2868 H   0  0  0  0  0  0
    1.7285    1.7349   -1.3541 H   0  0  0  0  0  0
    5.5021    0.3200   -3.1341 H   0  0  0  0  0  0
    5.7576    0.6794   -0.6944 H   0  0  0  0  0  0
    6.0321    2.4133   -0.9558 H   0  0  0  0  0  0
    7.2113    1.2337   -1.5490 H   0  0  0  0  0  0
    5.4188    2.2683   -4.7225 H   0  0  0  0  0  0
    7.0135    2.1517   -3.9476 H   0  0  0  0  0  0
    5.8337    3.3652   -3.4062 H   0  0  0  0  0  0
   -1.9396    3.2233   -0.5363 H   0  0  0  0  0  0
   -3.1970    2.5742   -2.6218 H   0  0  0  0  0  0
   -1.7808    2.9675   -3.5963 H   0  0  0  0  0  0
   -2.6264    4.2549   -2.7113 H   0  0  0  0  0  0
    0.4603    3.7515   -0.5991 H   0  0  0  0  0  0
   -0.4141    4.9162   -1.6100 H   0  0  0  0  0  0
    0.5019    3.5994   -2.3634 H   0  0  0  0  0  0
  1  2  1  0  0  0
  1 21  1  0  0  0
  1 22  1  0  0  0
  1 23  1  0  0  0
  2  3  1  0  0  0
  2  4  1  0  0  0
  2 24  1  0  0  0
  3 25  1  0  0  0
  3 26  1  0  0  0
  3 27  1  0  0  0
  4  5  1  0  0  0
  4 15  1  0  0  0
  4 28  1  0  0  0
  5  6  1  0  0  0
  5  7  1  0  0  0
  5  8  1  0  0  0
  6 29  1  0  0  0
  6 30  1  0  0  0
  6 31  1  0  0  0
  7 32  1  0  0  0
  7 33  1  0  0  0
  7 34  1  0  0  0
  8  9  1  0  0  0
  8 35  1  0  0  0
  8 36  1  0  0  0
  9 10  1  0  0  0
 10 11  2  0  0  0
 10 12  1  0  0  0
 12 13  1  0  0  0
 12 14  1  0  0  0
 12 37  1  0  0  0
 13 38  1  0  0  0
 13 39  1  0  0  0
 13 40  1  0  0  0
 14 41  1  0  0  0
 14 42  1  0  0  0
 14 43  1  0  0  0
 15 16  1  0  0  0
 16 17  2  0  0  0
 16 18  1  0  0  0
 18 19  1  0  0  0
 18 20  1  0  0  0
 18 44  1  0  0  0
 19 45  1  0  0  0
 19 46  1  0  0  0
 19 47  1  0  0  0
 20 48  1  0  0  0
 20 49  1  0  0  0
 20 50  1  0  0  0
M  END
>  <i_m_Spin_multiplicity> (1)
1

>  <s_j_Task> (1)
Single Point

>  <s_j_QM_Method> (1)
DFT(b3lyp-d3)

>  <s_j_QM_Basis> (1)
cc-pvtz(-f)

>  <i_j_Number_of_canonical_orbitals> (1)
725

>  <i_j_Geometry_convergence_category> (1)
3

>  <r_j_Gas_Phase_Energy> (1)
-929.091283884323

>  <r_j_Final_Energy> (1)
-929.091283884323

>  <r_j_HOMO> (1)
-0.256007954627098

>  <r_j_LUMO> (1)
0.0140841304224274

>  <r_j_Polarizability> (1)
202.260613769135

>  <r_j_QM_Dipole_(debye)> (1)
2.87211840496932

>  <r_j_QM_Dipole_X_(debye)> (1)
1.16615654512155

>  <r_j_QM_Dipole_Y_(debye)> (1)
-0.673475500712884

>  <r_j_QM_Dipole_Z_(debye)> (1)
2.536843273514

>  <r_j_Lowest_Frequency_(cm-1)> (1)
48.0473416760499

>  <r_j_Highest_Frequency_(cm-1)> (1)
3118.97252782619

>  <r_j_2nd_Lowest_Frequency_(cm-1)> (1)
50.5167701086788

>  <i_j_Num_Negative_Frequencies> (1)
0

>  <r_j_Zero_Point_Energy_(kcal/mol)> (1)
278.916234869216

>  <r_j_Entropy_(cal/mol/K)_298.15K_1.00E+00atm> (1)
152.388270864125

>  <r_j_Enthalpy_(kcal/mol)_298.15K_1.00E+00atm> (1)
14.9087893043006

>  <r_j_Free_Energy_(kcal/mol)_298.15K_1.00E+00atm> (1)
-30.5257736538383

>  <r_j_Internal_Energy_(kcal/mol)_298.15K_1.00E+00atm> (1)
14.3163037154734

>  <r_j_Heat_Capacity_(cal/mol/K)_298.15K_1.00E+00atm> (1)
89.178754471766

>  <r_j_ln(Q)_298.15K_1.00E+00atm> (1)
51.5215462274094

>  <r_j_Total_Internal_Energy_(au)_298.15K_1.00E+00atm> (1)
-928.623988086246

>  <r_j_Total_Enthalpy_(au)_298.15K_1.00E+00atm> (1)
-928.623043900353

>  <r_j_Total_Free_Energy_(au)_298.15K_1.00E+00atm> (1)
-928.695448485671

>  <r_lp_tautomer_probability> (1)
1

>  <r_epik_Ionization_Penalty> (1)
  0.0000

>  <r_epik_Ionization_Penalty_Charging> (1)
  0.0000

>  <r_epik_Ionization_Penalty_Neutral> (1)
  0.0000

>  <r_epik_State_Penalty> (1)
  0.0000

>  <r_epik_Charging_Adjusted_Penalty> (1)
0

>  <i_epik_Tot_Q> (1)
0

>  <i_epik_Tot_abs_Q> (1)
0

>  <s_lp_Force_Field> (1)
S-OPLS

>  <r_lp_Energy> (1)
14.293571

>  <b_lp_Chiralities_Consistent> (1)
1

>  <s_epik_Chemistry_Notes> (1)
This compound has an ester and may undergo hydrolysis at high or low pH.

$$$$
