23368_Diisopropyl adipate
                    3D
 Schrodinger Suite 2021-3.
 38 37  0  0  1  0            999 V2000
    1.8410    5.1310    0.9130 C   0  0  0  0  0  0
    1.1966    4.0027    1.7028 C   0  0  0  0  0  0
    2.1906    3.1965    2.5332 C   0  0  0  0  0  0
    0.5807    3.1293    0.7079 O   0  0  0  0  0  0
   -0.3977    2.3011    1.1323 C   0  0  0  0  0  0
   -0.8403    2.2864    2.2629 O   0  0  0  0  0  0
   -0.8095    1.3327    0.0421 C   0  0  0  0  0  0
   -0.1342   -0.0356    0.2797 C   0  0  0  0  0  0
    1.3952    0.0515    0.2713 C   0  0  0  0  0  0
    2.0774   -1.3005    0.4725 C   0  0  0  0  0  0
    3.5792   -1.1584    0.6335 C   0  0  0  0  0  0
    4.1570   -0.1184    0.8794 O   0  0  0  0  0  0
    4.1955   -2.3498    0.4854 O   0  0  0  0  0  0
    5.6449   -2.3748    0.6569 C   0  0  0  0  0  0
    6.1240   -3.6118   -0.0863 C   0  0  0  0  0  0
    5.9792   -2.3895    2.1441 C   0  0  0  0  0  0
    2.3053    5.8493    1.5957 H   0  0  0  0  0  0
    1.0968    5.6564    0.3082 H   0  0  0  0  0  0
    2.6147    4.7374    0.2466 H   0  0  0  0  0  0
    0.3983    4.3840    2.3475 H   0  0  0  0  0  0
    2.6967    3.8496    3.2517 H   0  0  0  0  0  0
    2.9462    2.7340    1.8901 H   0  0  0  0  0  0
    1.6704    2.4134    3.0892 H   0  0  0  0  0  0
   -1.8966    1.2225    0.0839 H   0  0  0  0  0  0
   -0.5284    1.7320   -0.9364 H   0  0  0  0  0  0
   -0.4778   -0.4304    1.2440 H   0  0  0  0  0  0
   -0.4793   -0.7355   -0.4916 H   0  0  0  0  0  0
    1.7390    0.4987   -0.6694 H   0  0  0  0  0  0
    1.7392    0.7269    1.0584 H   0  0  0  0  0  0
    1.7036   -1.7932    1.3811 H   0  0  0  0  0  0
    1.8748   -1.9965   -0.3490 H   0  0  0  0  0  0
    6.0468   -1.4658    0.1981 H   0  0  0  0  0  0
    7.2141   -3.6870   -0.0265 H   0  0  0  0  0  0
    5.8352   -3.5671   -1.1398 H   0  0  0  0  0  0
    5.6903   -4.5156    0.3531 H   0  0  0  0  0  0
    7.0635   -2.4376    2.2864 H   0  0  0  0  0  0
    5.5277   -3.2627    2.6261 H   0  0  0  0  0  0
    5.6073   -1.4823    2.6246 H   0  0  0  0  0  0
  1  2  1  0  0  0
  1 17  1  0  0  0
  1 18  1  0  0  0
  1 19  1  0  0  0
  2  3  1  0  0  0
  2  4  1  0  0  0
  2 20  1  0  0  0
  3 21  1  0  0  0
  3 22  1  0  0  0
  3 23  1  0  0  0
  4  5  1  0  0  0
  5  6  2  0  0  0
  5  7  1  0  0  0
  7  8  1  0  0  0
  7 24  1  0  0  0
  7 25  1  0  0  0
  8  9  1  0  0  0
  8 26  1  0  0  0
  8 27  1  0  0  0
  9 10  1  0  0  0
  9 28  1  0  0  0
  9 29  1  0  0  0
 10 11  1  0  0  0
 10 30  1  0  0  0
 10 31  1  0  0  0
 11 12  2  0  0  0
 11 13  1  0  0  0
 13 14  1  0  0  0
 14 15  1  0  0  0
 14 16  1  0  0  0
 14 32  1  0  0  0
 15 33  1  0  0  0
 15 34  1  0  0  0
 15 35  1  0  0  0
 16 36  1  0  0  0
 16 37  1  0  0  0
 16 38  1  0  0  0
M  END
>  <i_m_Spin_multiplicity> (1)
1

>  <s_j_Task> (1)
Single Point

>  <s_j_QM_Method> (1)
DFT(b3lyp-d3)

>  <s_j_QM_Basis> (1)
cc-pvtz(-f)

>  <i_j_Number_of_canonical_orbitals> (1)
564

>  <i_j_Geometry_convergence_category> (1)
3

>  <r_j_Gas_Phase_Energy> (1)
-771.780723122045

>  <r_j_Final_Energy> (1)
-771.780723122045

>  <r_j_HOMO> (1)
-0.26660214339422

>  <r_j_LUMO> (1)
-0.00929431200818431

>  <r_j_Polarizability> (1)
156.314045821668

>  <r_j_QM_Dipole_(debye)> (1)
2.56349087447254

>  <r_j_QM_Dipole_X_(debye)> (1)
1.48410093359613

>  <r_j_QM_Dipole_Y_(debye)> (1)
-1.45097092160896

>  <r_j_QM_Dipole_Z_(debye)> (1)
-1.50453091262638

>  <r_j_Lowest_Frequency_(cm-1)> (1)
36.5180112712369

>  <r_j_Highest_Frequency_(cm-1)> (1)
3086.39877639062

>  <r_j_2nd_Lowest_Frequency_(cm-1)> (1)
50.8500721318257

>  <i_j_Num_Negative_Frequencies> (1)
0

>  <r_j_Zero_Point_Energy_(kcal/mol)> (1)
208.108548390341

>  <r_j_Entropy_(cal/mol/K)_298.15K_1.00E+00atm> (1)
133.09127771683

>  <r_j_Enthalpy_(kcal/mol)_298.15K_1.00E+00atm> (1)
11.7770299737934

>  <r_j_Free_Energy_(kcal/mol)_298.15K_1.00E+00atm> (1)
-27.9041344774794

>  <r_j_Internal_Energy_(kcal/mol)_298.15K_1.00E+00atm> (1)
11.1845443849661

>  <r_j_Heat_Capacity_(cal/mol/K)_298.15K_1.00E+00atm> (1)
67.609185368334

>  <r_j_ln(Q)_298.15K_1.00E+00atm> (1)
47.0967311335132

>  <r_j_Total_Internal_Energy_(au)_298.15K_1.00E+00atm> (1)
-771.43125733187

>  <r_j_Total_Enthalpy_(au)_298.15K_1.00E+00atm> (1)
-771.430313145978

>  <r_j_Total_Free_Energy_(au)_298.15K_1.00E+00atm> (1)
-771.493549107105

>  <r_lp_tautomer_probability> (1)
1

>  <r_epik_Ionization_Penalty> (1)
  0.0000

>  <r_epik_Ionization_Penalty_Charging> (1)
  0.0000

>  <r_epik_Ionization_Penalty_Neutral> (1)
  0.0000

>  <r_epik_State_Penalty> (1)
  0.0000

>  <r_epik_Charging_Adjusted_Penalty> (1)
0

>  <i_epik_Tot_Q> (1)
0

>  <i_epik_Tot_abs_Q> (1)
0

>  <s_lp_Force_Field> (1)
S-OPLS

>  <r_lp_Energy> (1)
-1.505287

>  <b_lp_Chiralities_Consistent> (1)
1

>  <s_epik_Chemistry_Notes> (1)
This compound has an ester and may undergo hydrolysis at high or low pH.

$$$$
