2337_Benzocaine
                    3D
 Schrodinger Suite 2021-3.
 23 23  0  0  1  0            999 V2000
   -0.5386    1.4143   -0.0003 C   0  0  0  0  0  0
   -0.1342   -0.0472    0.0002 C   0  0  0  0  0  0
    1.3076   -0.0906    0.0003 O   0  0  0  0  0  0
    1.8544   -1.3341    0.0000 C   0  0  0  0  0  0
    1.1778   -2.3479   -0.0002 O   0  0  0  0  0  0
    3.3325   -1.3062    0.0000 C   0  0  0  0  0  0
    4.0182   -2.5305   -0.0002 C   0  0  0  0  0  0
    5.4014   -2.5755   -0.0002 C   0  0  0  0  0  0
    6.1544   -1.3825    0.0000 C   0  0  0  0  0  0
    5.4655   -0.1514    0.0001 C   0  0  0  0  0  0
    4.0797   -0.1184    0.0002 C   0  0  0  0  0  0
    7.5257   -1.4201   -0.0001 N   0  0  0  0  0  0
   -1.6296    1.5018   -0.0004 H   0  0  0  0  0  0
   -0.1503    1.9234   -0.8872 H   0  0  0  0  0  0
   -0.1505    1.9239    0.8865 H   0  0  0  0  0  0
   -0.5083   -0.5786    0.8818 H   0  0  0  0  0  0
   -0.5082   -0.5792   -0.8811 H   0  0  0  0  0  0
    3.4362   -3.4458   -0.0003 H   0  0  0  0  0  0
    5.9165   -3.5329   -0.0003 H   0  0  0  0  0  0
    6.0319    0.7764    0.0003 H   0  0  0  0  0  0
    3.5627    0.8347    0.0003 H   0  0  0  0  0  0
    8.0684   -0.5743    0.0000 H   0  0  0  0  0  0
    8.0196   -2.2954   -0.0002 H   0  0  0  0  0  0
  1  2  1  0  0  0
  1 13  1  0  0  0
  1 14  1  0  0  0
  1 15  1  0  0  0
  2  3  1  0  0  0
  2 16  1  0  0  0
  2 17  1  0  0  0
  3  4  1  0  0  0
  4  5  2  0  0  0
  4  6  1  0  0  0
  6 11  1  0  0  0
  6  7  2  0  0  0
  7  8  1  0  0  0
  7 18  1  0  0  0
  8  9  2  0  0  0
  8 19  1  0  0  0
  9 10  1  0  0  0
  9 12  1  0  0  0
 10 11  2  0  0  0
 10 20  1  0  0  0
 11 21  1  0  0  0
 12 22  1  0  0  0
 12 23  1  0  0  0
M  END
>  <i_m_Spin_multiplicity> (1)
1

>  <s_j_Task> (1)
Single Point

>  <s_j_QM_Method> (1)
DFT(b3lyp-d3)

>  <s_j_QM_Basis> (1)
cc-pvtz(-f)

>  <i_j_Number_of_canonical_orbitals> (1)
368

>  <i_j_Geometry_convergence_category> (1)
3

>  <r_j_Gas_Phase_Energy> (1)
-555.009721903749

>  <r_j_Final_Energy> (1)
-555.009721903749

>  <r_j_HOMO> (1)
-0.220935604159989

>  <r_j_LUMO> (1)
-0.0397448452990572

>  <r_j_Polarizability> (1)
124.479868851884

>  <r_j_QM_Dipole_(debye)> (1)
4.08104229234647

>  <r_j_QM_Dipole_X_(debye)> (1)
3.7193036957578

>  <r_j_QM_Dipole_Y_(debye)> (1)
1.67978752969053

>  <r_j_QM_Dipole_Z_(debye)> (1)
0.000256396300924734

>  <r_j_Lowest_Frequency_(cm-1)> (1)
-341.101290314667

>  <r_j_Highest_Frequency_(cm-1)> (1)
3702.54734625072

>  <r_j_2nd_Lowest_Frequency_(cm-1)> (1)
77.7096136261061

>  <i_j_Num_Negative_Frequencies> (1)
1

>  <r_j_Zero_Point_Energy_(kcal/mol)> (1)
117.277765935053

>  <r_j_Entropy_(cal/mol/K)_298.15K_1.00E+00atm> (1)
101.341269562502

>  <r_j_Enthalpy_(kcal/mol)_298.15K_1.00E+00atm> (1)
7.35789476824221

>  <r_j_Free_Energy_(kcal/mol)_298.15K_1.00E+00atm> (1)
-22.8570047518177

>  <r_j_Internal_Energy_(kcal/mol)_298.15K_1.00E+00atm> (1)
6.76540917941494

>  <r_j_Heat_Capacity_(cal/mol/K)_298.15K_1.00E+00atm> (1)
41.4935986501192

>  <r_j_ln(Q)_298.15K_1.00E+00atm> (1)
38.5781615331088

>  <r_j_Total_Internal_Energy_(au)_298.15K_1.00E+00atm> (1)
-554.812046520277

>  <r_j_Total_Enthalpy_(au)_298.15K_1.00E+00atm> (1)
-554.811102334385

>  <r_j_Total_Free_Energy_(au)_298.15K_1.00E+00atm> (1)
-554.85925284201

>  <r_lp_tautomer_probability> (1)
1

>  <r_epik_Ionization_Penalty> (1)
  0.0000

>  <r_epik_Ionization_Penalty_Charging> (1)
  0.0000

>  <r_epik_Ionization_Penalty_Neutral> (1)
  0.0000

>  <r_epik_State_Penalty> (1)
  0.0000

>  <r_epik_Charging_Adjusted_Penalty> (1)
0

>  <i_epik_Tot_Q> (1)
0

>  <i_epik_Tot_abs_Q> (1)
0

>  <s_lp_Force_Field> (1)
S-OPLS

>  <r_lp_Energy> (1)
4.65407

>  <b_lp_Chiralities_Consistent> (1)
1

>  <s_epik_Chemistry_Notes> (1)
This compound has an ester and may undergo hydrolysis at high or low pH.

$$$$
