23468_Methyl propylcyclohexanes
                    3D
 Schrodinger Suite 2021-3.
 30 30  0  0  1  0            999 V2000
   -0.7011    1.4132    0.0444 C   0  0  0  0  0  0
   -0.0527    0.0500   -0.2231 C   0  0  0  0  0  0
    1.4835    0.0232   -0.0522 C   0  0  0  0  0  0
    2.1536    0.8325   -1.1756 C   0  0  0  0  0  0
    2.0134   -1.4359    0.0350 C   0  0  0  0  0  0
    3.5458   -1.5459   -0.1143 C   0  0  0  0  0  0
    4.0430   -2.9969   -0.0126 C   0  0  0  0  0  0
    3.5949   -3.6652    1.2931 C   0  0  0  0  0  0
    2.0719   -3.5744    1.4506 C   0  0  0  0  0  0
    1.5884   -2.1200    1.3536 C   0  0  0  0  0  0
   -1.7902    1.3548   -0.0537 H   0  0  0  0  0  0
   -0.3525    2.1829   -0.6511 H   0  0  0  0  0  0
   -0.4771    1.7591    1.0603 H   0  0  0  0  0  0
   -0.5141   -0.6823    0.4477 H   0  0  0  0  0  0
   -0.2947   -0.2818   -1.2429 H   0  0  0  0  0  0
    1.7250    0.5142    0.9043 H   0  0  0  0  0  0
    2.0425    0.3221   -2.1405 H   0  0  0  0  0  0
    3.2213    0.9824   -0.9964 H   0  0  0  0  0  0
    1.7029    1.8241   -1.2733 H   0  0  0  0  0  0
    1.5633   -1.9991   -0.8001 H   0  0  0  0  0  0
    3.8695   -1.1267   -1.0717 H   0  0  0  0  0  0
    4.0234   -0.9403    0.6709 H   0  0  0  0  0  0
    3.6454   -3.5697   -0.8629 H   0  0  0  0  0  0
    5.1356   -3.0243   -0.1030 H   0  0  0  0  0  0
    3.9251   -4.7105    1.3233 H   0  0  0  0  0  0
    4.0756   -3.1584    2.1423 H   0  0  0  0  0  0
    1.5905   -4.1683    0.6604 H   0  0  0  0  0  0
    1.7571   -4.0121    2.4056 H   0  0  0  0  0  0
    2.0104   -1.5450    2.1916 H   0  0  0  0  0  0
    0.5010   -2.0898    1.4765 H   0  0  0  0  0  0
  1  2  1  0  0  0
  1 11  1  0  0  0
  1 12  1  0  0  0
  1 13  1  0  0  0
  2  3  1  0  0  0
  2 14  1  0  0  0
  2 15  1  0  0  0
  3  4  1  0  0  0
  3  5  1  0  0  0
  3 16  1  0  0  0
  4 17  1  0  0  0
  4 18  1  0  0  0
  4 19  1  0  0  0
  5 10  1  0  0  0
  5  6  1  0  0  0
  5 20  1  0  0  0
  6  7  1  0  0  0
  6 21  1  0  0  0
  6 22  1  0  0  0
  7  8  1  0  0  0
  7 23  1  0  0  0
  7 24  1  0  0  0
  8  9  1  0  0  0
  8 25  1  0  0  0
  8 26  1  0  0  0
  9 10  1  0  0  0
  9 27  1  0  0  0
  9 28  1  0  0  0
 10 29  1  0  0  0
 10 30  1  0  0  0
M  END
>  <i_m_Spin_multiplicity> (1)
1

>  <s_j_Task> (1)
Single Point

>  <s_j_QM_Method> (1)
DFT(b3lyp-d3)

>  <s_j_QM_Basis> (1)
cc-pvtz(-f)

>  <i_j_Number_of_canonical_orbitals> (1)
405

>  <i_j_Geometry_convergence_category> (1)
3

>  <r_j_Gas_Phase_Energy> (1)
-393.288092440894

>  <r_j_Final_Energy> (1)
-393.288092440894

>  <r_j_HOMO> (1)
-0.297740745647861

>  <r_j_LUMO> (1)
0.015256678762371

>  <r_j_Polarizability> (1)
117.441016010923

>  <r_j_QM_Dipole_(debye)> (1)
0.0910869102101861

>  <r_j_QM_Dipole_X_(debye)> (1)
-0.00247975054159578

>  <r_j_QM_Dipole_Y_(debye)> (1)
-0.0859567267824677

>  <r_j_QM_Dipole_Z_(debye)> (1)
0.030035265434721

>  <r_j_Lowest_Frequency_(cm-1)> (1)
79.8492183127189

>  <r_j_Highest_Frequency_(cm-1)> (1)
3065.53744277682

>  <r_j_2nd_Lowest_Frequency_(cm-1)> (1)
117.429492063567

>  <i_j_Num_Negative_Frequencies> (1)
0

>  <r_j_Zero_Point_Energy_(kcal/mol)> (1)
177.415952237357

>  <r_j_Entropy_(cal/mol/K)_298.15K_1.00E+00atm> (1)
97.952613861378

>  <r_j_Enthalpy_(kcal/mol)_298.15K_1.00E+00atm> (1)
7.2102522312118

>  <r_j_Free_Energy_(kcal/mol)_298.15K_1.00E+00atm> (1)
-21.9943195915581

>  <r_j_Internal_Energy_(kcal/mol)_298.15K_1.00E+00atm> (1)
6.61776664238453

>  <r_j_Heat_Capacity_(cal/mol/K)_298.15K_1.00E+00atm> (1)
42.8103559509201

>  <r_j_ln(Q)_298.15K_1.00E+00atm> (1)
37.1221174089519

>  <r_j_Total_Internal_Energy_(au)_298.15K_1.00E+00atm> (1)
-392.994816040014

>  <r_j_Total_Enthalpy_(au)_298.15K_1.00E+00atm> (1)
-392.993871854121

>  <r_j_Total_Free_Energy_(au)_298.15K_1.00E+00atm> (1)
-393.040412302065

>  <r_lp_tautomer_probability> (1)
1

>  <r_epik_Ionization_Penalty> (1)
  0.0000

>  <r_epik_Ionization_Penalty_Charging> (1)
  0.0000

>  <r_epik_Ionization_Penalty_Neutral> (1)
  0.0000

>  <r_epik_State_Penalty> (1)
  0.0000

>  <r_epik_Charging_Adjusted_Penalty> (1)
0

>  <i_epik_Tot_Q> (1)
0

>  <i_epik_Tot_abs_Q> (1)
0

>  <s_lp_Force_Field> (1)
S-OPLS

>  <r_lp_Energy> (1)
12.7595

>  <b_lp_Chiralities_Consistent> (1)
1

$$$$
