23544_3,3,5-trimethylheptane
                    3D
 Schrodinger Suite 2021-3.
 32 31  0  0  1  0            999 V2000
   -0.8929    3.5834    1.7910 C   0  0  0  0  0  0
   -0.5864    2.0896    1.6424 C   0  0  0  0  0  0
   -0.4383    1.6055    0.1844 C   0  0  0  0  0  0
   -1.7732    1.6850   -0.5737 C   0  0  0  0  0  0
    0.1381    0.1644    0.1246 C   0  0  0  0  0  0
    1.6555    0.0203   -0.1738 C   0  0  0  0  0  0
    1.9596    0.4902   -1.6105 C   0  0  0  0  0  0
    2.5013    0.8546    0.8083 C   0  0  0  0  0  0
    2.0797   -1.4643    0.0013 C   0  0  0  0  0  0
    1.3749   -2.5005   -0.8827 C   0  0  0  0  0  0
   -0.9330    3.8745    2.8458 H   0  0  0  0  0  0
   -1.8533    3.8531    1.3406 H   0  0  0  0  0  0
   -0.1186    4.1915    1.3081 H   0  0  0  0  0  0
    0.3356    1.8635    2.1895 H   0  0  0  0  0  0
   -1.3766    1.4984    2.1274 H   0  0  0  0  0  0
    0.2607    2.2887   -0.3180 H   0  0  0  0  0  0
   -2.5133    1.0108   -0.1248 H   0  0  0  0  0  0
   -1.6459    1.3885   -1.6205 H   0  0  0  0  0  0
   -2.1940    2.6953   -0.5658 H   0  0  0  0  0  0
   -0.0815   -0.3442    1.0743 H   0  0  0  0  0  0
   -0.4041   -0.3993   -0.6433 H   0  0  0  0  0  0
    3.0164    0.3339   -1.8558 H   0  0  0  0  0  0
    1.7491    1.5572   -1.7353 H   0  0  0  0  0  0
    1.3590   -0.0503   -2.3488 H   0  0  0  0  0  0
    3.5699    0.7250    0.6011 H   0  0  0  0  0  0
    2.3245    0.5474    1.8453 H   0  0  0  0  0  0
    2.2807    1.9237    0.7308 H   0  0  0  0  0  0
    3.1621   -1.5288   -0.1764 H   0  0  0  0  0  0
    1.9308   -1.7395    1.0546 H   0  0  0  0  0  0
    1.7791   -3.5001   -0.6907 H   0  0  0  0  0  0
    1.5146   -2.2919   -1.9482 H   0  0  0  0  0  0
    0.2988   -2.5420   -0.6888 H   0  0  0  0  0  0
  1  2  1  0  0  0
  1 11  1  0  0  0
  1 12  1  0  0  0
  1 13  1  0  0  0
  2  3  1  0  0  0
  2 14  1  0  0  0
  2 15  1  0  0  0
  3  4  1  0  0  0
  3  5  1  0  0  0
  3 16  1  0  0  0
  4 17  1  0  0  0
  4 18  1  0  0  0
  4 19  1  0  0  0
  5  6  1  0  0  0
  5 20  1  0  0  0
  5 21  1  0  0  0
  6  7  1  0  0  0
  6  8  1  0  0  0
  6  9  1  0  0  0
  7 22  1  0  0  0
  7 23  1  0  0  0
  7 24  1  0  0  0
  8 25  1  0  0  0
  8 26  1  0  0  0
  8 27  1  0  0  0
  9 10  1  0  0  0
  9 28  1  0  0  0
  9 29  1  0  0  0
 10 30  1  0  0  0
 10 31  1  0  0  0
 10 32  1  0  0  0
M  END
>  <i_m_Spin_multiplicity> (1)
1

>  <s_j_Task> (1)
Single Point

>  <s_j_QM_Method> (1)
DFT(b3lyp-d3)

>  <s_j_QM_Basis> (1)
cc-pvtz(-f)

>  <i_j_Number_of_canonical_orbitals> (1)
425

>  <i_j_Geometry_convergence_category> (1)
3

>  <r_j_Gas_Phase_Energy> (1)
-394.496268571889

>  <r_j_Final_Energy> (1)
-394.496268571889

>  <r_j_HOMO> (1)
-0.29343050078674

>  <r_j_LUMO> (1)
0.0280268900670398

>  <r_j_Polarizability> (1)
121.820696440043

>  <r_j_QM_Dipole_(debye)> (1)
0.108487707784384

>  <r_j_QM_Dipole_X_(debye)> (1)
0.0891899031588241

>  <r_j_QM_Dipole_Y_(debye)> (1)
-0.057163329534537

>  <r_j_QM_Dipole_Z_(debye)> (1)
0.0233901190966463

>  <r_j_Lowest_Frequency_(cm-1)> (1)
72.5238634658161

>  <r_j_Highest_Frequency_(cm-1)> (1)
3058.46427286599

>  <r_j_2nd_Lowest_Frequency_(cm-1)> (1)
92.5878340407783

>  <i_j_Num_Negative_Frequencies> (1)
0

>  <r_j_Zero_Point_Energy_(kcal/mol)> (1)
189.345182185249

>  <r_j_Entropy_(cal/mol/K)_298.15K_1.00E+00atm> (1)
105.560024232189

>  <r_j_Enthalpy_(kcal/mol)_298.15K_1.00E+00atm> (1)
8.41691693434416

>  <r_j_Free_Energy_(kcal/mol)_298.15K_1.00E+00atm> (1)
-23.0558042904831

>  <r_j_Internal_Energy_(kcal/mol)_298.15K_1.00E+00atm> (1)
7.82443134551689

>  <r_j_Heat_Capacity_(cal/mol/K)_298.15K_1.00E+00atm> (1)
49.4120632912699

>  <r_j_ln(Q)_298.15K_1.00E+00atm> (1)
38.9136963417426

>  <r_j_Total_Internal_Energy_(au)_298.15K_1.00E+00atm> (1)
-394.182058790273

>  <r_j_Total_Enthalpy_(au)_298.15K_1.00E+00atm> (1)
-394.18111460438

>  <r_j_Total_Free_Energy_(au)_298.15K_1.00E+00atm> (1)
-394.231269578495

>  <r_lp_tautomer_probability> (1)
1

>  <r_epik_Ionization_Penalty> (1)
  0.0000

>  <r_epik_Ionization_Penalty_Charging> (1)
  0.0000

>  <r_epik_Ionization_Penalty_Neutral> (1)
  0.0000

>  <r_epik_State_Penalty> (1)
  0.0000

>  <r_epik_Charging_Adjusted_Penalty> (1)
0

>  <i_epik_Tot_Q> (1)
0

>  <i_epik_Tot_abs_Q> (1)
0

>  <s_lp_Force_Field> (1)
S-OPLS

>  <r_lp_Energy> (1)
11.388063

>  <b_lp_Chiralities_Consistent> (1)
1

$$$$
