2365_beta-Propiolactone
                    3D
 Schrodinger Suite 2021-3.
  9  9  0  0  1  0            999 V2000
    4.3895  -13.1266   -8.3470 C   0  0  0  0  0  0
    5.8054  -12.5919   -8.0754 C   0  0  0  0  0  0
    5.3526  -11.2231   -8.3576 O   0  0  0  0  0  0
    4.0691  -11.6526   -8.6116 C   0  0  0  0  0  0
    3.1242  -10.9926   -8.9225 O   0  0  0  0  0  0
    3.8566  -13.5535   -7.4948 H   0  0  0  0  0  0
    4.2700  -13.7733   -9.2189 H   0  0  0  0  0  0
    6.1665  -12.6748   -7.0478 H   0  0  0  0  0  0
    6.5820  -12.8947   -8.7813 H   0  0  0  0  0  0
  1  4  1  0  0  0
  1  2  1  0  0  0
  1  6  1  0  0  0
  1  7  1  0  0  0
  2  3  1  0  0  0
  2  8  1  0  0  0
  2  9  1  0  0  0
  3  4  1  0  0  0
  4  5  2  0  0  0
M  END
> <i_m_Spin_multiplicity>
1

> <s_j_Task>
Single Point

> <s_j_QM_Method>
DFT(b3lyp-d3)

> <s_j_QM_Basis>
cc-pvtz(-f)

> <i_j_Number_of_canonical_orbitals>
151

> <i_j_Geometry_convergence_category>
0

> <r_j_Gas_Phase_Energy>
-267.253447105952

> <r_j_Final_Energy>
-267.253447105952

> <r_j_HOMO>
-0.309628571457858

> <r_j_LUMO>
-0.0270457384972334

> <r_j_Polarizability>
38.3284513252313

> <r_j_QM_Dipole_(debye)>
4.19507897748356

> <r_j_QM_Dipole_X_(debye)>
1.97982039848751

> <r_j_QM_Dipole_Y_(debye)>
-3.57959957259107

> <r_j_QM_Dipole_Z_(debye)>
0.930304099186412

> <r_j_Lowest_Frequency_(cm-1)>
216.778896027344

> <r_j_Highest_Frequency_(cm-1)>
3099.64231468739

> <r_j_2nd_Lowest_Frequency_(cm-1)>
493.400910883909

> <i_j_Num_Negative_Frequencies>
0

> <r_j_Zero_Point_Energy_(kcal/mol)>
42.7979506559817

> <r_j_Entropy_(cal/mol/K)_298.15K_1.00E+00atm>
67.7345527044034

> <r_j_Enthalpy_(kcal/mol)_298.15K_1.00E+00atm>
3.23968770495085

> <r_j_Free_Energy_(kcal/mol)_298.15K_1.00E+00atm>
-16.955369183867

> <r_j_Internal_Energy_(kcal/mol)_298.15K_1.00E+00atm>
2.64720211612358

> <r_j_Heat_Capacity_(cal/mol/K)_298.15K_1.00E+00atm>
14.3722556835036

> <r_j_ln(Q)_298.15K_1.00E+00atm>
28.6173529003926

> <r_j_Total_Internal_Energy_(au)_298.15K_1.00E+00atm>
-267.181025644692

> <r_j_Total_Enthalpy_(au)_298.15K_1.00E+00atm>
-267.180081458799

> <r_j_Total_Free_Energy_(au)_298.15K_1.00E+00atm>
-267.212264330699

> <r_lp_tautomer_probability>
1

> <r_epik_Ionization_Penalty>
  0.0000

> <r_epik_Ionization_Penalty_Charging>
  0.0000

> <r_epik_Ionization_Penalty_Neutral>
  0.0000

> <r_epik_State_Penalty>
  0.0000

> <r_epik_Charging_Adjusted_Penalty>
0

> <i_epik_Tot_Q>
0

> <i_epik_Tot_abs_Q>
0

> <s_lp_Force_Field>
S-OPLS

> <r_lp_Energy>
5.45546

> <b_lp_Chiralities_Consistent>
1

> <s_epik_Chemistry_Notes>
This compound has an ester and may undergo hydrolysis at high or low pH.

$$$$
