23662387_Dimethylcarbamodithioic acid
                    3D
 Schrodinger Suite 2021-3.
 12 11  0  0  1  0            999 V2000
    0.0896    0.0443    0.0000 C   0  0  0  0  0  0
    1.5362    0.1421    0.0000 N   0  0  0  0  0  0
    2.1881   -1.1530    0.0000 C   0  0  0  0  0  0
    2.2281    1.3546   -0.0001 C   0  0  0  0  0  0
    3.9562    1.3203   -0.0002 S   0  0  0  0  0  0
    1.3195    2.8250   -0.0002 S   0  5  0  0  0  0
   -0.3320    1.0492    0.0000 H   0  0  0  0  0  0
   -0.2612   -0.5055    0.8888 H   0  0  0  0  0  0
   -0.2612   -0.5055   -0.8888 H   0  0  0  0  0  0
    3.2677   -1.0044    0.0000 H   0  0  0  0  0  0
    1.8933   -1.7348   -0.8888 H   0  0  0  0  0  0
    1.8933   -1.7348    0.8887 H   0  0  0  0  0  0
  1  2  1  0  0  0
  1  7  1  0  0  0
  1  8  1  0  0  0
  1  9  1  0  0  0
  2  3  1  0  0  0
  2  4  1  0  0  0
  3 10  1  0  0  0
  3 11  1  0  0  0
  3 12  1  0  0  0
  4  5  2  0  0  0
  4  6  1  0  0  0
M  END
>  <i_m_Spin_multiplicity> (1)
1

>  <s_j_Task> (1)
Single Point

>  <s_j_QM_Method> (1)
DFT(b3lyp-d3)

>  <s_j_QM_Basis> (1)
cc-pvtz(-f)

>  <i_j_Number_of_canonical_orbitals> (1)
200

>  <i_j_Geometry_convergence_category> (1)
0

>  <r_j_Gas_Phase_Energy> (1)
-969.247941346861

>  <r_j_Final_Energy> (1)
-969.247941346861

>  <r_j_HOMO> (1)
-0.00327686954098527

>  <r_j_LUMO> (1)
0.146782084948715

>  <r_j_Polarizability> (1)
95.0765592308801

>  <r_j_QM_Dipole_(debye)> (1)
5.8640260548371

>  <r_j_QM_Dipole_X_(debye)> (1)
-2.90616650149985

>  <r_j_QM_Dipole_Y_(debye)> (1)
-5.09323056790296

>  <r_j_QM_Dipole_Z_(debye)> (1)
0.000468558840655105

>  <r_j_Lowest_Frequency_(cm-1)> (1)
96.3462507815662

>  <r_j_Highest_Frequency_(cm-1)> (1)
3075.46382528489

>  <r_j_2nd_Lowest_Frequency_(cm-1)> (1)
150.154109515191

>  <i_j_Num_Negative_Frequencies> (1)
0

>  <r_j_Zero_Point_Energy_(kcal/mol)> (1)
55.7653761810086

>  <r_j_Entropy_(cal/mol/K)_298.15K_1.00E+00atm> (1)
84.0411636964873

>  <r_j_Enthalpy_(kcal/mol)_298.15K_1.00E+00atm> (1)
5.07427293711379

>  <r_j_Free_Energy_(kcal/mol)_298.15K_1.00E+00atm> (1)
-19.9826000189939

>  <r_j_Internal_Energy_(kcal/mol)_298.15K_1.00E+00atm> (1)
4.48178734828652

>  <r_j_Heat_Capacity_(cal/mol/K)_298.15K_1.00E+00atm> (1)
24.4045840856574

>  <r_j_ln(Q)_298.15K_1.00E+00atm> (1)
33.7267275285904

>  <r_j_Total_Internal_Energy_(au)_298.15K_1.00E+00atm> (1)
-969.151931379825

>  <r_j_Total_Enthalpy_(au)_298.15K_1.00E+00atm> (1)
-969.150987193933

>  <r_j_Total_Free_Energy_(au)_298.15K_1.00E+00atm> (1)
-969.190917862957

>  <r_lp_tautomer_probability> (1)
1

>  <r_epik_Ionization_Penalty> (1)
  0.0003

>  <r_epik_Ionization_Penalty_Charging> (1)
  0.0003

>  <r_epik_Ionization_Penalty_Neutral> (1)
  0.0000

>  <r_epik_State_Penalty> (1)
  0.0000

>  <r_epik_Charging_Adjusted_Penalty> (1)
0.000283514

>  <i_epik_Tot_Q> (1)
-1

>  <i_epik_Tot_abs_Q> (1)
1

>  <s_lp_Force_Field> (1)
S-OPLS

>  <r_lp_Energy> (1)
20.8958

>  <b_lp_Chiralities_Consistent> (1)
1

$$$$
