23936_Niobium
                    3D
 Schrodinger Suite 2021-3.
  1  0  0  0  1  0            999 V2000
    0.0000    0.0000    0.0000 Nb  0  0  0  0  0  0
M  END
>  <i_m_Spin_multiplicity> (1)
2

>  <s_j_Task> (1)
Single Point

>  <s_j_QM_Method> (1)
UDFT(b3lyp-d3)

>  <s_j_QM_Basis> (1)
lacv3p**

>  <i_j_Number_of_canonical_orbitals> (1)
31

>  <r_j_Gas_Phase_Energy> (1)
-56.0594488063991

>  <r_j_Final_Energy> (1)
-56.0594488063991

>  <r_j_Polarizability> (1)
100.822710513731

>  <r_j_QM_Dipole_(debye)> (1)
0

>  <r_j_QM_Dipole_X_(debye)> (1)
0

>  <r_j_QM_Dipole_Y_(debye)> (1)
0

>  <r_j_QM_Dipole_Z_(debye)> (1)
0

>  <r_j_Zero_Point_Energy_(kcal/mol)> (1)
0

>  <r_j_Entropy_(cal/mol/K)_298.15K_1.00E+00atm> (1)
40.8761590103541

>  <r_j_Enthalpy_(kcal/mol)_298.15K_1.00E+00atm> (1)
1.48121397206819

>  <r_j_Free_Energy_(kcal/mol)_298.15K_1.00E+00atm> (1)
-10.7060128368689

>  <r_j_Internal_Energy_(kcal/mol)_298.15K_1.00E+00atm> (1)
0.888728383240912

>  <r_j_Heat_Capacity_(cal/mol/K)_298.15K_1.00E+00atm> (1)
2.98080960335707

>  <r_j_ln(Q)_298.15K_1.00E+00atm> (1)
18.0696594799202

>  <r_j_Total_Internal_Energy_(au)_298.15K_1.00E+00atm> (1)
-56.0580325275607

>  <r_j_Total_Enthalpy_(au)_298.15K_1.00E+00atm> (1)
-56.0570883416685

>  <r_j_Total_Free_Energy_(au)_298.15K_1.00E+00atm> (1)
-56.0765099239578

>  <r_j_alpha_HOMO> (1)
-0.188068020096748

>  <r_j_alpha_LUMO> (1)
-0.171141968156185

>  <r_j_beta_HOMO> (1)
-0.179030302842804

>  <r_j_beta_LUMO> (1)
-0.157063085811432

>  <r_j_S2_Value> (1)
0.750686420502213

$$$$
