23948_Rhodium
                    3D
 Schrodinger Suite 2021-3.
  1  0  0  0  1  0            999 V2000
    0.0000    0.0000    0.0000 Rh  0  0  0  0  0  0
M  END
>  <i_m_Spin_multiplicity> (1)
2

>  <s_j_Task> (1)
Single Point

>  <s_j_QM_Method> (1)
UDFT(b3lyp-d3)

>  <s_j_QM_Basis> (1)
lacv3p**

>  <i_j_Number_of_canonical_orbitals> (1)
31

>  <r_j_Gas_Phase_Energy> (1)
-109.419278261512

>  <r_j_Final_Energy> (1)
-109.419278261512

>  <r_j_Polarizability> (1)
20.9626844488559

>  <r_j_QM_Dipole_(debye)> (1)
0

>  <r_j_QM_Dipole_X_(debye)> (1)
0

>  <r_j_QM_Dipole_Y_(debye)> (1)
0

>  <r_j_QM_Dipole_Z_(debye)> (1)
0

>  <r_j_Zero_Point_Energy_(kcal/mol)> (1)
0

>  <r_j_Entropy_(cal/mol/K)_298.15K_1.00E+00atm> (1)
41.1808539072619

>  <r_j_Enthalpy_(kcal/mol)_298.15K_1.00E+00atm> (1)
1.48121397206819

>  <r_j_Free_Energy_(kcal/mol)_298.15K_1.00E+00atm> (1)
-10.796857620382

>  <r_j_Internal_Energy_(kcal/mol)_298.15K_1.00E+00atm> (1)
0.888728383240912

>  <r_j_Heat_Capacity_(cal/mol/K)_298.15K_1.00E+00atm> (1)
2.98080960335707

>  <r_j_ln(Q)_298.15K_1.00E+00atm> (1)
18.2229877384065

>  <r_j_Total_Internal_Energy_(au)_298.15K_1.00E+00atm> (1)
-109.417861982674

>  <r_j_Total_Enthalpy_(au)_298.15K_1.00E+00atm> (1)
-109.416917796782

>  <r_j_Total_Free_Energy_(au)_298.15K_1.00E+00atm> (1)
-109.43648414945

>  <r_j_alpha_HOMO> (1)
-0.150464492420584

>  <r_j_alpha_LUMO> (1)
-0.091547790385798

>  <r_j_beta_HOMO> (1)
-0.13138947096307

>  <r_j_beta_LUMO> (1)
-0.0855705959876221

>  <r_j_S2_Value> (1)
0.750558190836276

$$$$
