24055_Methylnaphthol
                    3D
 Schrodinger Suite 2021-3.
 22 23  0  0  1  0            999 V2000
   -0.0219    0.0026    0.0001 C   0  0  0  0  0  0
    1.4870    0.0406    0.0000 C   0  0  0  0  0  0
    2.1896    1.2348   -0.0001 C   0  0  0  0  0  0
    3.6220    1.2573    0.0000 C   0  0  0  0  0  0
    4.3796    2.4598    0.0000 C   0  0  0  0  0  0
    5.7563    2.4396    0.0001 C   0  0  0  0  0  0
    6.4498    1.2079    0.0001 C   0  0  0  0  0  0
    5.7476    0.0251    0.0000 C   0  0  0  0  0  0
    4.3276    0.0104    0.0000 C   0  0  0  0  0  0
    3.5915   -1.2011    0.0000 C   0  0  0  0  0  0
    2.2186   -1.1729    0.0000 C   0  0  0  0  0  0
    1.4600    2.3949   -0.0001 O   0  0  0  0  0  0
   -0.4525    1.0039    0.0001 H   0  0  0  0  0  0
   -0.3952   -0.5315    0.8818 H   0  0  0  0  0  0
   -0.3953   -0.5315   -0.8815 H   0  0  0  0  0  0
    3.8845    3.4289    0.0000 H   0  0  0  0  0  0
    6.3119    3.3726    0.0002 H   0  0  0  0  0  0
    7.5358    1.2001    0.0001 H   0  0  0  0  0  0
    6.2741   -0.9259    0.0000 H   0  0  0  0  0  0
    4.1283   -2.1452    0.0000 H   0  0  0  0  0  0
    1.6594   -2.1054    0.0000 H   0  0  0  0  0  0
    2.0514    3.1557   -0.0001 H   0  0  0  0  0  0
  1  2  1  0  0  0
  1 13  1  0  0  0
  1 14  1  0  0  0
  1 15  1  0  0  0
  2 11  1  0  0  0
  2  3  2  0  0  0
  3  4  1  0  0  0
  3 12  1  0  0  0
  4  9  1  0  0  0
  4  5  2  0  0  0
  5  6  1  0  0  0
  5 16  1  0  0  0
  6  7  2  0  0  0
  6 17  1  0  0  0
  7  8  1  0  0  0
  7 18  1  0  0  0
  8  9  2  0  0  0
  8 19  1  0  0  0
  9 10  1  0  0  0
 10 11  2  0  0  0
 10 20  1  0  0  0
 11 21  1  0  0  0
 12 22  1  0  0  0
M  END
>  <i_m_Spin_multiplicity> (1)
1

>  <s_j_Task> (1)
Single Point

>  <s_j_QM_Method> (1)
DFT(b3lyp-d3)

>  <s_j_QM_Basis> (1)
cc-pvtz(-f)

>  <i_j_Number_of_canonical_orbitals> (1)
358

>  <i_j_Geometry_convergence_category> (1)
0

>  <r_j_Gas_Phase_Energy> (1)
-500.603822548314

>  <r_j_Final_Energy> (1)
-500.603822548314

>  <r_j_HOMO> (1)
-0.203728203319422

>  <r_j_LUMO> (1)
-0.0402529937789369

>  <r_j_Polarizability> (1)
131.56874072402

>  <r_j_QM_Dipole_(debye)> (1)
0.90118482381111

>  <r_j_QM_Dipole_X_(debye)> (1)
0.731708810973787

>  <r_j_QM_Dipole_Y_(debye)> (1)
0.526057313426

>  <r_j_QM_Dipole_Z_(debye)> (1)
7.48452235830379e-05

>  <r_j_Lowest_Frequency_(cm-1)> (1)
113.035795739901

>  <r_j_Highest_Frequency_(cm-1)> (1)
3801.60023340847

>  <r_j_2nd_Lowest_Frequency_(cm-1)> (1)
131.378187358188

>  <i_j_Num_Negative_Frequencies> (1)
0

>  <r_j_Zero_Point_Energy_(kcal/mol)> (1)
111.803707445666

>  <r_j_Entropy_(cal/mol/K)_298.15K_1.00E+00atm> (1)
94.8948063540266

>  <r_j_Enthalpy_(kcal/mol)_298.15K_1.00E+00atm> (1)
6.65024672612525

>  <r_j_Free_Energy_(kcal/mol)_298.15K_1.00E+00atm> (1)
-21.6426397883278

>  <r_j_Internal_Energy_(kcal/mol)_298.15K_1.00E+00atm> (1)
6.05776113729797

>  <r_j_Heat_Capacity_(cal/mol/K)_298.15K_1.00E+00atm> (1)
39.2694272939244

>  <r_j_ln(Q)_298.15K_1.00E+00atm> (1)
36.5285505613153

>  <r_j_Total_Internal_Energy_(au)_298.15K_1.00E+00atm> (1)
-500.415998341322

>  <r_j_Total_Enthalpy_(au)_298.15K_1.00E+00atm> (1)
-500.41505415543

>  <r_j_Total_Free_Energy_(au)_298.15K_1.00E+00atm> (1)
-500.460141740346

>  <r_epik_Ionization_Penalty> (1)
  0.0012

>  <r_epik_Ionization_Penalty_Charging> (1)
  0.0000

>  <r_epik_Ionization_Penalty_Neutral> (1)
  0.0012

>  <r_epik_State_Penalty> (1)
  0.0008

>  <r_epik_Charging_Adjusted_Penalty> (1)
0.000784287

>  <i_epik_Tot_Q> (1)
0

>  <i_epik_Tot_abs_Q> (1)
0

>  <s_lp_Force_Field> (1)
S-OPLS

>  <r_lp_Energy> (1)
18.8762

>  <b_lp_Chiralities_Consistent> (1)
1

$$$$
