240_Benzaldehyde
                    3D
 Schrodinger Suite 2021-3.
 14 14  0  0  1  0            999 V2000
   -2.7751    0.0058    0.0000 C   0  0  0  0  0  0
   -2.0766    1.2149    0.0000 C   0  0  0  0  0  0
   -0.6832    1.2076    0.0000 C   0  0  0  0  0  0
    0.0129   -0.0074    0.0000 C   0  0  0  0  0  0
   -0.6934   -1.2193    0.0000 C   0  0  0  0  0  0
   -2.0834   -1.2108    0.0000 C   0  0  0  0  0  0
    1.4935   -0.0121    0.0000 C   0  0  0  0  0  0
    2.1802   -1.0162    0.0000 O   0  0  0  0  0  0
   -3.8614    0.0097    0.0000 H   0  0  0  0  0  0
   -2.6175    2.1564    0.0000 H   0  0  0  0  0  0
   -0.1291    2.1436    0.0001 H   0  0  0  0  0  0
   -0.1290   -2.1465    0.0000 H   0  0  0  0  0  0
   -2.6336   -2.1472    0.0000 H   0  0  0  0  0  0
    1.9605    0.9991    0.0000 H   0  0  0  0  0  0
  1  6  1  0  0  0
  1  2  2  0  0  0
  1  9  1  0  0  0
  2  3  1  0  0  0
  2 10  1  0  0  0
  3  4  2  0  0  0
  3 11  1  0  0  0
  4  5  1  0  0  0
  4  7  1  0  0  0
  5  6  2  0  0  0
  5 12  1  0  0  0
  6 13  1  0  0  0
  7  8  2  0  0  0
  7 14  1  0  0  0
M  END
>  <i_m_Spin_multiplicity> (1)
1

>  <s_j_Task> (1)
Single Point

>  <s_j_QM_Method> (1)
DFT(b3lyp-d3)

>  <s_j_QM_Basis> (1)
cc-pvtz(-f)

>  <i_j_Number_of_canonical_orbitals> (1)
233

>  <i_j_Geometry_convergence_category> (1)
0

>  <r_j_Gas_Phase_Energy> (1)
-345.694100474711

>  <r_j_Final_Energy> (1)
-345.694100474711

>  <r_j_HOMO> (1)
-0.266181854781004

>  <r_j_LUMO> (1)
-0.0764386898080859

>  <r_j_Polarizability> (1)
79.8043117017455

>  <r_j_QM_Dipole_(debye)> (1)
3.38622306446462

>  <r_j_QM_Dipole_X_(debye)> (1)
-2.90454881353519

>  <r_j_QM_Dipole_Y_(debye)> (1)
1.74071905463221

>  <r_j_QM_Dipole_Z_(debye)> (1)
7.03125234384399e-05

>  <r_j_Lowest_Frequency_(cm-1)> (1)
151.74975384383

>  <r_j_Highest_Frequency_(cm-1)> (1)
3155.71632873877

>  <r_j_2nd_Lowest_Frequency_(cm-1)> (1)
242.851355987962

>  <i_j_Num_Negative_Frequencies> (1)
0

>  <r_j_Zero_Point_Energy_(kcal/mol)> (1)
68.5224489519227

>  <r_j_Entropy_(cal/mol/K)_298.15K_1.00E+00atm> (1)
78.6520895728178

>  <r_j_Enthalpy_(kcal/mol)_298.15K_1.00E+00atm> (1)
4.44817335828224

>  <r_j_Free_Energy_(kcal/mol)_298.15K_1.00E+00atm> (1)
-19.0019471478534

>  <r_j_Internal_Energy_(kcal/mol)_298.15K_1.00E+00atm> (1)
3.85568776945496

>  <r_j_Heat_Capacity_(cal/mol/K)_298.15K_1.00E+00atm> (1)
23.5986567862827

>  <r_j_ln(Q)_298.15K_1.00E+00atm> (1)
32.0715769398957

>  <r_j_Total_Internal_Energy_(au)_298.15K_1.00E+00atm> (1)
-345.578758571231

>  <r_j_Total_Enthalpy_(au)_298.15K_1.00E+00atm> (1)
-345.577814385339

>  <r_j_Total_Free_Energy_(au)_298.15K_1.00E+00atm> (1)
-345.615184531332

>  <r_lp_tautomer_probability> (1)
1

>  <r_epik_Ionization_Penalty> (1)
  0.0000

>  <r_epik_Ionization_Penalty_Charging> (1)
  0.0000

>  <r_epik_Ionization_Penalty_Neutral> (1)
  0.0000

>  <r_epik_State_Penalty> (1)
  0.0000

>  <r_epik_Charging_Adjusted_Penalty> (1)
0

>  <i_epik_Tot_Q> (1)
0

>  <i_epik_Tot_abs_Q> (1)
0

>  <s_lp_Force_Field> (1)
S-OPLS

>  <r_lp_Energy> (1)
7.413437

>  <b_lp_Chiralities_Consistent> (1)
1

$$$$
