242342_Allobetulin
                    3D
 Schrodinger Suite 2021-3.
 82 87  0  0  1  0            999 V2000
   -0.5189   -0.9815   -0.2757 C   0  0  0  0  0  0
    0.9383   -0.4937   -0.2271 C   0  0  0  0  0  0
    1.2930    0.2031   -1.5668 C   0  0  0  0  0  0
    2.8069    0.2825   -1.8459 C   0  0  0  0  0  0
    3.5444   -1.0443   -1.5391 C   0  0  0  0  0  0
    5.0059   -0.9728   -1.9866 C   0  0  0  0  0  0
    5.8958   -2.0892   -1.4122 C   0  0  0  0  0  0
    5.7754   -2.4265    0.1067 C   0  0  0  0  0  0
    4.2519   -2.4977    0.4973 C   0  0  0  0  0  0
    3.3620   -1.3485   -0.0314 C   0  0  0  0  0  0
    1.8697   -1.7270   -0.0654 C   0  0  0  0  0  0
    1.7526   -2.5887   -1.2176 O   0  0  0  0  0  0
    2.7741   -2.2301   -2.1595 C   0  0  0  0  0  0
    4.0726   -2.7074    2.0137 C   0  0  0  0  0  0
    4.8605   -1.7006    2.8545 C   0  0  0  0  0  0
    6.3662   -1.7736    2.5392 C   0  0  0  0  0  0
    6.6403   -1.4355    1.0322 C   0  0  0  0  0  0
    8.1721   -1.6290    0.7463 C   0  0  0  0  0  0
    9.0212   -1.9013    1.9929 C   0  0  0  0  0  0
    8.7372   -0.8361    3.0704 C   0  0  0  0  0  0
    7.2783   -1.0691    3.6385 C   0  0  0  0  0  0
    7.3302   -2.0661    4.8344 C   0  0  0  0  0  0
    8.3828   -1.7454    5.8984 C   0  0  0  0  0  0
    9.7783   -1.7134    5.2793 C   0  0  0  0  0  0
    9.8846   -0.6623    4.1422 C   0  0  0  0  0  0
   11.2793   -0.7718    3.4839 C   0  0  0  0  0  0
    9.8575    0.7552    4.7660 C   0  0  0  0  0  0
   10.0231   -3.0495    4.8196 O   0  0  0  0  0  0
    6.6494    0.2545    4.1329 C   0  0  0  0  0  0
    6.3338    0.0544    0.7528 C   0  0  0  0  0  0
    6.3213   -3.8800    0.2379 C   0  0  0  0  0  0
    1.1011    0.4704    0.9637 C   0  0  0  0  0  0
   -1.1981   -0.1570   -0.5214 H   0  0  0  0  0  0
   -0.8277   -1.3927    0.6927 H   0  0  0  0  0  0
   -0.6322   -1.7639   -1.0307 H   0  0  0  0  0  0
    0.8148   -0.3584   -2.3768 H   0  0  0  0  0  0
    0.8508    1.2066   -1.5904 H   0  0  0  0  0  0
    2.9689    0.5600   -2.8958 H   0  0  0  0  0  0
    3.2688    1.0764   -1.2441 H   0  0  0  0  0  0
    5.0482   -1.0199   -3.0839 H   0  0  0  0  0  0
    5.3957    0.0135   -1.7247 H   0  0  0  0  0  0
    5.6617   -3.0119   -1.9575 H   0  0  0  0  0  0
    6.9426   -1.8713   -1.6542 H   0  0  0  0  0  0
    3.8658   -3.3988    0.0059 H   0  0  0  0  0  0
    3.5243   -0.4495    0.5622 H   0  0  0  0  0  0
    1.5455   -2.3156    0.8000 H   0  0  0  0  0  0
    2.3189   -1.9637   -3.1221 H   0  0  0  0  0  0
    3.4228   -3.0990   -2.3272 H   0  0  0  0  0  0
    3.0099   -2.6589    2.2761 H   0  0  0  0  0  0
    4.3974   -3.7205    2.2801 H   0  0  0  0  0  0
    4.4732   -0.6901    2.6823 H   0  0  0  0  0  0
    4.6840   -1.9130    3.9144 H   0  0  0  0  0  0
    6.6233   -2.8316    2.6399 H   0  0  0  0  0  0
    8.3508   -2.4230    0.0196 H   0  0  0  0  0  0
    8.5637   -0.7186    0.2753 H   0  0  0  0  0  0
    8.8513   -2.9047    2.3961 H   0  0  0  0  0  0
   10.0663   -1.8798    1.6791 H   0  0  0  0  0  0
    8.7229    0.1241    2.5344 H   0  0  0  0  0  0
    6.3416   -2.1216    5.3042 H   0  0  0  0  0  0
    7.5516   -3.0684    4.4549 H   0  0  0  0  0  0
    8.1769   -0.7939    6.3984 H   0  0  0  0  0  0
    8.3672   -2.5176    6.6750 H   0  0  0  0  0  0
   10.5170   -1.4514    6.0563 H   0  0  0  0  0  0
   12.0593   -0.5261    4.2139 H   0  0  0  0  0  0
   11.3743   -0.0672    2.6503 H   0  0  0  0  0  0
   11.4964   -1.7667    3.0880 H   0  0  0  0  0  0
   10.7094    0.8904    5.4420 H   0  0  0  0  0  0
    8.9568    0.9683    5.3380 H   0  0  0  0  0  0
    9.9354    1.5162    3.9822 H   0  0  0  0  0  0
   10.9390   -3.1025    4.5226 H   0  0  0  0  0  0
    7.1426    0.6248    5.0312 H   0  0  0  0  0  0
    5.5982    0.1214    4.3971 H   0  0  0  0  0  0
    6.7045    1.0491    3.3852 H   0  0  0  0  0  0
    6.9373    0.6871    1.4052 H   0  0  0  0  0  0
    5.2904    0.3314    0.9050 H   0  0  0  0  0  0
    6.6063    0.3232   -0.2686 H   0  0  0  0  0  0
    6.4540   -4.2038    1.2717 H   0  0  0  0  0  0
    7.2821   -4.0054   -0.2672 H   0  0  0  0  0  0
    5.6242   -4.5793   -0.2343 H   0  0  0  0  0  0
    2.0575    1.0006    0.9499 H   0  0  0  0  0  0
    1.0302   -0.0642    1.9187 H   0  0  0  0  0  0
    0.3082    1.2260    0.9481 H   0  0  0  0  0  0
  1  2  1  0  0  0
  1 33  1  0  0  0
  1 34  1  0  0  0
  1 35  1  0  0  0
  2 11  1  0  0  0
  2  3  1  0  0  0
  2 32  1  0  0  0
  3  4  1  0  0  0
  3 36  1  0  0  0
  3 37  1  0  0  0
  4  5  1  0  0  0
  4 38  1  0  0  0
  4 39  1  0  0  0
  5 10  1  0  0  0
  5 13  1  0  0  0
  5  6  1  0  0  0
  6  7  1  0  0  0
  6 40  1  0  0  0
  6 41  1  0  0  0
  7  8  1  0  0  0
  7 42  1  0  0  0
  7 43  1  0  0  0
  8 17  1  0  0  0
  8  9  1  0  0  0
  8 31  1  0  0  0
  9 10  1  0  0  0
  9 14  1  0  0  0
  9 44  1  0  0  0
 10 11  1  0  0  0
 10 45  1  0  0  0
 11 12  1  0  0  0
 11 46  1  0  0  0
 12 13  1  0  0  0
 13 47  1  0  0  0
 13 48  1  0  0  0
 14 15  1  0  0  0
 14 49  1  0  0  0
 14 50  1  0  0  0
 15 16  1  0  0  0
 15 51  1  0  0  0
 15 52  1  0  0  0
 16 21  1  0  0  0
 16 17  1  0  0  0
 16 53  1  0  0  0
 17 18  1  0  0  0
 17 30  1  0  0  0
 18 19  1  0  0  0
 18 54  1  0  0  0
 18 55  1  0  0  0
 19 20  1  0  0  0
 19 56  1  0  0  0
 19 57  1  0  0  0
 20 25  1  0  0  0
 20 21  1  0  0  0
 20 58  1  0  0  0
 21 22  1  0  0  0
 21 29  1  0  0  0
 22 23  1  0  0  0
 22 59  1  0  0  0
 22 60  1  0  0  0
 23 24  1  0  0  0
 23 61  1  0  0  0
 23 62  1  0  0  0
 24 25  1  0  0  0
 24 28  1  0  0  0
 24 63  1  0  0  0
 25 26  1  0  0  0
 25 27  1  0  0  0
 26 64  1  0  0  0
 26 65  1  0  0  0
 26 66  1  0  0  0
 27 67  1  0  0  0
 27 68  1  0  0  0
 27 69  1  0  0  0
 28 70  1  0  0  0
 29 71  1  0  0  0
 29 72  1  0  0  0
 29 73  1  0  0  0
 30 74  1  0  0  0
 30 75  1  0  0  0
 30 76  1  0  0  0
 31 77  1  0  0  0
 31 78  1  0  0  0
 31 79  1  0  0  0
 32 80  1  0  0  0
 32 81  1  0  0  0
 32 82  1  0  0  0
M  END
>  <i_m_Spin_multiplicity> (1)
1

>  <s_j_Task> (1)
Single Point

>  <s_j_QM_Method> (1)
DFT(b3lyp-d3)

>  <s_j_QM_Basis> (1)
cc-pvtz(-f)

>  <i_j_Number_of_canonical_orbitals> (1)
1160

>  <i_j_Geometry_convergence_category> (1)
3

>  <r_j_Gas_Phase_Energy> (1)
-1324.27636766178

>  <r_j_Final_Energy> (1)
-1324.27636766178

>  <r_j_HOMO> (1)
-0.250138620635723

>  <r_j_LUMO> (1)
-0.0105822245046821

>  <r_j_Polarizability> (1)
332.671860123255

>  <r_j_QM_Dipole_(debye)> (1)
2.89158451020721

>  <r_j_QM_Dipole_X_(debye)> (1)
2.26624807771252

>  <r_j_QM_Dipole_Y_(debye)> (1)
1.77673620426765

>  <r_j_QM_Dipole_Z_(debye)> (1)
0.261895189683207

>  <r_j_Lowest_Frequency_(cm-1)> (1)
43.9818484383931

>  <r_j_Highest_Frequency_(cm-1)> (1)
3786.10009692253

>  <r_j_2nd_Lowest_Frequency_(cm-1)> (1)
57.7904847653261

>  <i_j_Num_Negative_Frequencies> (1)
0

>  <r_j_Zero_Point_Energy_(kcal/mol)> (1)
474.630038808381

>  <r_j_Entropy_(cal/mol/K)_298.15K_1.00E+00atm> (1)
170.095102235446

>  <r_j_Enthalpy_(kcal/mol)_298.15K_1.00E+00atm> (1)
18.5755814056076

>  <r_j_Free_Energy_(kcal/mol)_298.15K_1.00E+00atm> (1)
-32.1382733258906

>  <r_j_Internal_Energy_(kcal/mol)_298.15K_1.00E+00atm> (1)
17.9830958167803

>  <r_j_Heat_Capacity_(cal/mol/K)_298.15K_1.00E+00atm> (1)
129.186611335822

>  <r_j_ln(Q)_298.15K_1.00E+00atm> (1)
54.2431308574154

>  <r_j_Total_Internal_Energy_(au)_298.15K_1.00E+00atm> (1)
-1323.49133865715

>  <r_j_Total_Enthalpy_(au)_298.15K_1.00E+00atm> (1)
-1323.49039447126

>  <r_j_Total_Free_Energy_(au)_298.15K_1.00E+00atm> (1)
-1323.57121214359

>  <r_lp_tautomer_probability> (1)
1

>  <r_epik_Ionization_Penalty> (1)
  0.0000

>  <r_epik_Ionization_Penalty_Charging> (1)
  0.0000

>  <r_epik_Ionization_Penalty_Neutral> (1)
  0.0000

>  <r_epik_State_Penalty> (1)
  0.0000

>  <r_epik_Charging_Adjusted_Penalty> (1)
0

>  <i_epik_Tot_Q> (1)
0

>  <i_epik_Tot_abs_Q> (1)
0

>  <s_lp_Force_Field> (1)
S-OPLS

>  <r_lp_Energy> (1)
116.712

>  <b_lp_Chiralities_Consistent> (1)
1

$$$$
