244297_Friedelin
                    3D
 Schrodinger Suite 2021-3.
 81 85  0  0  1  0            999 V2000
   -0.1947   -1.3649   -0.8260 C   0  0  0  0  0  0
    0.8625   -0.4292   -0.2048 C   0  0  0  0  0  0
    0.2589    0.2491    1.0316 C   0  0  0  0  0  0
   -0.3002    1.3273    0.9498 O   0  0  0  0  0  0
    0.3266   -0.5115    2.3532 C   0  0  0  0  0  0
    1.6451   -1.2722    2.6058 C   0  0  0  0  0  0
    2.0442   -2.0521    1.3416 C   0  0  0  0  0  0
    2.2517   -1.0561    0.1507 C   0  0  0  0  0  0
    2.8824   -1.8049   -1.0519 C   0  0  0  0  0  0
    2.6176   -3.3119   -1.0483 C   0  0  0  0  0  0
    3.1663   -4.0489    0.2024 C   0  0  0  0  0  0
    3.1525   -3.1398    1.5017 C   0  0  0  0  0  0
    2.8599   -3.9974    2.7602 C   0  0  0  0  0  0
    3.5850   -5.3438    2.7442 C   0  0  0  0  0  0
    3.3112   -6.2765    1.5067 C   0  0  0  0  0  0
    2.5279   -5.4814    0.3700 C   0  0  0  0  0  0
    2.6315   -6.2632   -0.9725 C   0  0  0  0  0  0
    4.0538   -6.5617   -1.4432 C   0  0  0  0  0  0
    4.8278   -7.4161   -0.4208 C   0  0  0  0  0  0
    4.7317   -6.7243    0.9770 C   0  0  0  0  0  0
    5.5632   -7.5108    2.0147 C   0  0  0  0  0  0
    7.0698   -7.6046    1.6582 C   0  0  0  0  0  0
    7.2207   -8.1498    0.2170 C   0  0  0  0  0  0
    6.3308   -7.4301   -0.8069 C   0  0  0  0  0  0
    7.7477   -6.2253    1.7920 C   0  0  0  0  0  0
    7.7549   -8.5703    2.6407 C   0  0  0  0  0  0
    4.2934   -8.8661   -0.4682 C   0  0  0  0  0  0
    1.0034   -5.4026    0.6539 C   0  0  0  0  0  0
    2.4811   -7.4784    2.0094 C   0  0  0  0  0  0
    4.5619   -2.5339    1.6993 C   0  0  0  0  0  0
    3.1593    0.1567    0.4824 C   0  0  0  0  0  0
   -1.1147   -0.8028   -1.0140 H   0  0  0  0  0  0
   -0.4470   -2.2101   -0.1786 H   0  0  0  0  0  0
    0.1525   -1.7639   -1.7828 H   0  0  0  0  0  0
    1.0303    0.3802   -0.9255 H   0  0  0  0  0  0
    0.0830    0.1896    3.1559 H   0  0  0  0  0  0
   -0.4913   -1.2473    2.3139 H   0  0  0  0  0  0
    2.4341   -0.5745    2.9053 H   0  0  0  0  0  0
    1.4933   -1.9448    3.4534 H   0  0  0  0  0  0
    1.1554   -2.6416    1.0858 H   0  0  0  0  0  0
    2.5237   -1.3639   -1.9909 H   0  0  0  0  0  0
    3.9657   -1.6390   -1.0497 H   0  0  0  0  0  0
    1.5427   -3.4796   -1.1463 H   0  0  0  0  0  0
    3.0683   -3.7467   -1.9462 H   0  0  0  0  0  0
    4.2259   -4.2245   -0.0048 H   0  0  0  0  0  0
    3.1878   -3.4464    3.6501 H   0  0  0  0  0  0
    1.7853   -4.1442    2.8907 H   0  0  0  0  0  0
    4.6567   -5.1326    2.8063 H   0  0  0  0  0  0
    3.3491   -5.8813    3.6693 H   0  0  0  0  0  0
    2.0898   -7.2082   -0.8561 H   0  0  0  0  0  0
    2.0831   -5.7231   -1.7503 H   0  0  0  0  0  0
    4.0263   -7.0784   -2.4117 H   0  0  0  0  0  0
    4.5969   -5.6237   -1.6176 H   0  0  0  0  0  0
    5.2569   -5.7728    0.8281 H   0  0  0  0  0  0
    5.4725   -7.0623    3.0097 H   0  0  0  0  0  0
    5.1683   -8.5280    2.1142 H   0  0  0  0  0  0
    8.2724   -8.0829   -0.0907 H   0  0  0  0  0  0
    6.9764   -9.2195    0.2196 H   0  0  0  0  0  0
    6.4473   -7.8992   -1.7927 H   0  0  0  0  0  0
    6.6717   -6.3928   -0.9240 H   0  0  0  0  0  0
    8.8229   -6.3043    1.5955 H   0  0  0  0  0  0
    7.6224   -5.8297    2.8067 H   0  0  0  0  0  0
    7.3423   -5.4845    1.0976 H   0  0  0  0  0  0
    8.8211   -8.6774    2.4093 H   0  0  0  0  0  0
    7.3011   -9.5672    2.5984 H   0  0  0  0  0  0
    7.6719   -8.2078    3.6720 H   0  0  0  0  0  0
    4.7228   -9.5030    0.3076 H   0  0  0  0  0  0
    4.5454   -9.3164   -1.4353 H   0  0  0  0  0  0
    3.2094   -8.9180   -0.3607 H   0  0  0  0  0  0
    0.5447   -6.3914    0.5744 H   0  0  0  0  0  0
    0.5050   -4.7720   -0.0875 H   0  0  0  0  0  0
    0.7495   -5.0099    1.6369 H   0  0  0  0  0  0
    2.1270   -8.1254    1.2048 H   0  0  0  0  0  0
    1.6049   -7.1387    2.5689 H   0  0  0  0  0  0
    3.0727   -8.0956    2.6909 H   0  0  0  0  0  0
    5.2803   -3.3149    1.9681 H   0  0  0  0  0  0
    4.5670   -1.7923    2.5050 H   0  0  0  0  0  0
    4.9440   -2.0578    0.7952 H   0  0  0  0  0  0
    4.1329   -0.1363    0.8734 H   0  0  0  0  0  0
    2.7059    0.8438    1.2028 H   0  0  0  0  0  0
    3.3294    0.7332   -0.4338 H   0  0  0  0  0  0
  1  2  1  0  0  0
  1 32  1  0  0  0
  1 33  1  0  0  0
  1 34  1  0  0  0
  2  8  1  0  0  0
  2  3  1  0  0  0
  2 35  1  0  0  0
  3  4  2  0  0  0
  3  5  1  0  0  0
  5  6  1  0  0  0
  5 36  1  0  0  0
  5 37  1  0  0  0
  6  7  1  0  0  0
  6 38  1  0  0  0
  6 39  1  0  0  0
  7 12  1  0  0  0
  7  8  1  0  0  0
  7 40  1  0  0  0
  8  9  1  0  0  0
  8 31  1  0  0  0
  9 10  1  0  0  0
  9 41  1  0  0  0
  9 42  1  0  0  0
 10 11  1  0  0  0
 10 43  1  0  0  0
 10 44  1  0  0  0
 11 16  1  0  0  0
 11 12  1  0  0  0
 11 45  1  0  0  0
 12 13  1  0  0  0
 12 30  1  0  0  0
 13 14  1  0  0  0
 13 46  1  0  0  0
 13 47  1  0  0  0
 14 15  1  0  0  0
 14 48  1  0  0  0
 14 49  1  0  0  0
 15 20  1  0  0  0
 15 16  1  0  0  0
 15 29  1  0  0  0
 16 17  1  0  0  0
 16 28  1  0  0  0
 17 18  1  0  0  0
 17 50  1  0  0  0
 17 51  1  0  0  0
 18 19  1  0  0  0
 18 52  1  0  0  0
 18 53  1  0  0  0
 19 24  1  0  0  0
 19 20  1  0  0  0
 19 27  1  0  0  0
 20 21  1  0  0  0
 20 54  1  0  0  0
 21 22  1  0  0  0
 21 55  1  0  0  0
 21 56  1  0  0  0
 22 23  1  0  0  0
 22 25  1  0  0  0
 22 26  1  0  0  0
 23 24  1  0  0  0
 23 57  1  0  0  0
 23 58  1  0  0  0
 24 59  1  0  0  0
 24 60  1  0  0  0
 25 61  1  0  0  0
 25 62  1  0  0  0
 25 63  1  0  0  0
 26 64  1  0  0  0
 26 65  1  0  0  0
 26 66  1  0  0  0
 27 67  1  0  0  0
 27 68  1  0  0  0
 27 69  1  0  0  0
 28 70  1  0  0  0
 28 71  1  0  0  0
 28 72  1  0  0  0
 29 73  1  0  0  0
 29 74  1  0  0  0
 29 75  1  0  0  0
 30 76  1  0  0  0
 30 77  1  0  0  0
 30 78  1  0  0  0
 31 79  1  0  0  0
 31 80  1  0  0  0
 31 81  1  0  0  0
M  END
>  <i_m_Spin_multiplicity> (1)
1

>  <s_j_Task> (1)
Single Point

>  <s_j_QM_Method> (1)
DFT(b3lyp-d3)

>  <s_j_QM_Basis> (1)
cc-pvtz(-f)

>  <i_j_Number_of_canonical_orbitals> (1)
1138

>  <i_j_Geometry_convergence_category> (1)
3

>  <r_j_Gas_Phase_Energy> (1)
-1249.04441268028

>  <r_j_Final_Energy> (1)
-1249.04441268028

>  <r_j_HOMO> (1)
-0.248879425867568

>  <r_j_LUMO> (1)
-0.0313090402232964

>  <r_j_Polarizability> (1)
329.538207832612

>  <r_j_QM_Dipole_(debye)> (1)
3.54780421949131

>  <r_j_QM_Dipole_X_(debye)> (1)
1.67059738362605

>  <r_j_QM_Dipole_Y_(debye)> (1)
-3.12985851595292

>  <r_j_QM_Dipole_Z_(debye)> (1)
-0.00219813083034389

>  <r_j_Lowest_Frequency_(cm-1)> (1)
43.6024923385939

>  <r_j_Highest_Frequency_(cm-1)> (1)
3108.22879161632

>  <r_j_2nd_Lowest_Frequency_(cm-1)> (1)
67.2181748887772

>  <i_j_Num_Negative_Frequencies> (1)
0

>  <r_j_Zero_Point_Energy_(kcal/mol)> (1)
470.450232521488

>  <r_j_Entropy_(cal/mol/K)_298.15K_1.00E+00atm> (1)
169.165980773336

>  <r_j_Enthalpy_(kcal/mol)_298.15K_1.00E+00atm> (1)
18.4577757223811

>  <r_j_Free_Energy_(kcal/mol)_298.15K_1.00E+00atm> (1)
-31.979061445189

>  <r_j_Internal_Energy_(kcal/mol)_298.15K_1.00E+00atm> (1)
17.8652901335538

>  <r_j_Heat_Capacity_(cal/mol/K)_298.15K_1.00E+00atm> (1)
127.75997997089

>  <r_j_ln(Q)_298.15K_1.00E+00atm> (1)
53.974412286527

>  <r_j_Total_Internal_Energy_(au)_298.15K_1.00E+00atm> (1)
-1248.26623235632

>  <r_j_Total_Enthalpy_(au)_298.15K_1.00E+00atm> (1)
-1248.26528817043

>  <r_j_Total_Free_Energy_(au)_298.15K_1.00E+00atm> (1)
-1248.34566438717

>  <r_lp_tautomer_probability> (1)
1

>  <r_epik_Ionization_Penalty> (1)
  0.0000

>  <r_epik_Ionization_Penalty_Charging> (1)
  0.0000

>  <r_epik_Ionization_Penalty_Neutral> (1)
  0.0000

>  <r_epik_State_Penalty> (1)
  0.0000

>  <r_epik_Charging_Adjusted_Penalty> (1)
0

>  <i_epik_Tot_Q> (1)
0

>  <i_epik_Tot_abs_Q> (1)
0

>  <s_lp_Force_Field> (1)
S-OPLS

>  <r_lp_Energy> (1)
106.564

>  <b_lp_Chiralities_Consistent> (1)
1

$$$$
