24699_Monostearin
                    3D
 Schrodinger Suite 2021-3.
 67 66  0  0  1  0            999 V2000
  -10.7156    3.0752    2.8447 C   0  0  0  0  0  0
   -9.1863    3.0003    2.8758 C   0  0  0  0  0  0
   -8.6408    1.6333    2.4450 C   0  0  0  0  0  0
   -7.1103    1.5550    2.4772 C   0  0  0  0  0  0
   -6.5603    0.1903    2.0413 C   0  0  0  0  0  0
   -5.0331    0.0597    2.1518 C   0  0  0  0  0  0
   -4.2458    0.9748    1.2045 C   0  0  0  0  0  0
   -2.7268    0.8065    1.3279 C   0  0  0  0  0  0
   -1.9405    1.7060    0.3646 C   0  0  0  0  0  0
   -0.4169    1.6686    0.5591 C   0  0  0  0  0  0
    0.2255    0.3001    0.2976 C   0  0  0  0  0  0
    1.7543    0.3188    0.4137 C   0  0  0  0  0  0
    2.3954   -1.0532    0.1767 C   0  0  0  0  0  0
    3.9264   -1.0341    0.2846 C   0  0  0  0  0  0
    4.5947   -2.3788   -0.0392 C   0  0  0  0  0  0
    4.2996   -3.4881    0.9806 C   0  0  0  0  0  0
    4.9313   -4.8300    0.5989 C   0  0  0  0  0  0
    4.2662   -5.4589   -0.6105 C   0  0  0  0  0  0
    3.1865   -5.1435   -1.0666 O   0  0  0  0  0  0
    5.0253   -6.4527   -1.1219 O   0  0  0  0  0  0
    4.4510   -7.1527   -2.2418 C   0  0  0  0  0  0
    5.4301   -8.2274   -2.6690 C   0  0  0  0  0  0
    5.0218   -8.8392   -4.0097 C   0  0  0  0  0  0
    5.9632   -9.8823   -4.2647 O   0  0  0  0  0  0
    5.4529   -9.2310   -1.6686 O   0  0  0  0  0  0
  -11.0774    4.0606    3.1564 H   0  0  0  0  0  0
  -11.1604    2.3295    3.5138 H   0  0  0  0  0  0
  -11.0992    2.8825    1.8361 H   0  0  0  0  0  0
   -8.7664    3.7781    2.2233 H   0  0  0  0  0  0
   -8.8271    3.2288    3.8886 H   0  0  0  0  0  0
   -9.0610    0.8528    3.0957 H   0  0  0  0  0  0
   -8.9968    1.4038    1.4302 H   0  0  0  0  0  0
   -6.7012    2.3459    1.8351 H   0  0  0  0  0  0
   -6.7567    1.7774    3.4946 H   0  0  0  0  0  0
   -7.0295   -0.5912    2.6545 H   0  0  0  0  0  0
   -6.8691   -0.0116    1.0055 H   0  0  0  0  0  0
   -4.7279    0.2643    3.1884 H   0  0  0  0  0  0
   -4.7479   -0.9823    1.9531 H   0  0  0  0  0  0
   -4.5535    0.7722    0.1682 H   0  0  0  0  0  0
   -4.5027    2.0246    1.3970 H   0  0  0  0  0  0
   -2.4208    1.0279    2.3610 H   0  0  0  0  0  0
   -2.4669   -0.2458    1.1539 H   0  0  0  0  0  0
   -2.1822    1.4245   -0.6705 H   0  0  0  0  0  0
   -2.2872    2.7416    0.4851 H   0  0  0  0  0  0
    0.0447    2.4097   -0.1077 H   0  0  0  0  0  0
   -0.1754    1.9904    1.5825 H   0  0  0  0  0  0
   -0.1756   -0.4414    1.0007 H   0  0  0  0  0  0
   -0.0591   -0.0489   -0.7058 H   0  0  0  0  0  0
    2.1655    1.0439   -0.3035 H   0  0  0  0  0  0
    2.0383    0.6864    1.4105 H   0  0  0  0  0  0
    1.9770   -1.7699    0.8950 H   0  0  0  0  0  0
    2.1098   -1.4243   -0.8177 H   0  0  0  0  0  0
    4.3181   -0.2705   -0.4011 H   0  0  0  0  0  0
    4.2181   -0.7114    1.2948 H   0  0  0  0  0  0
    4.2651   -2.7121   -1.0311 H   0  0  0  0  0  0
    5.6826   -2.2370   -0.1004 H   0  0  0  0  0  0
    4.6701   -3.1860    1.9680 H   0  0  0  0  0  0
    3.2190   -3.6343    1.0722 H   0  0  0  0  0  0
    6.0043   -4.7362    0.3967 H   0  0  0  0  0  0
    4.8429   -5.5560    1.4175 H   0  0  0  0  0  0
    3.4983   -7.6015   -1.9444 H   0  0  0  0  0  0
    4.2590   -6.4414   -3.0529 H   0  0  0  0  0  0
    6.4261   -7.7698   -2.7911 H   0  0  0  0  0  0
    3.9988   -9.2358   -3.9267 H   0  0  0  0  0  0
    5.0393   -8.0782   -4.8044 H   0  0  0  0  0  0
    5.6022  -10.4671   -4.9413 H   0  0  0  0  0  0
    5.9430   -9.9709   -2.0578 H   0  0  0  0  0  0
  1  2  1  0  0  0
  1 26  1  0  0  0
  1 27  1  0  0  0
  1 28  1  0  0  0
  2  3  1  0  0  0
  2 29  1  0  0  0
  2 30  1  0  0  0
  3  4  1  0  0  0
  3 31  1  0  0  0
  3 32  1  0  0  0
  4  5  1  0  0  0
  4 33  1  0  0  0
  4 34  1  0  0  0
  5  6  1  0  0  0
  5 35  1  0  0  0
  5 36  1  0  0  0
  6  7  1  0  0  0
  6 37  1  0  0  0
  6 38  1  0  0  0
  7  8  1  0  0  0
  7 39  1  0  0  0
  7 40  1  0  0  0
  8  9  1  0  0  0
  8 41  1  0  0  0
  8 42  1  0  0  0
  9 10  1  0  0  0
  9 43  1  0  0  0
  9 44  1  0  0  0
 10 11  1  0  0  0
 10 45  1  0  0  0
 10 46  1  0  0  0
 11 12  1  0  0  0
 11 47  1  0  0  0
 11 48  1  0  0  0
 12 13  1  0  0  0
 12 49  1  0  0  0
 12 50  1  0  0  0
 13 14  1  0  0  0
 13 51  1  0  0  0
 13 52  1  0  0  0
 14 15  1  0  0  0
 14 53  1  0  0  0
 14 54  1  0  0  0
 15 16  1  0  0  0
 15 55  1  0  0  0
 15 56  1  0  0  0
 16 17  1  0  0  0
 16 57  1  0  0  0
 16 58  1  0  0  0
 17 18  1  0  0  0
 17 59  1  0  0  0
 17 60  1  0  0  0
 18 19  2  0  0  0
 18 20  1  0  0  0
 20 21  1  0  0  0
 21 22  1  0  0  0
 21 61  1  0  0  0
 21 62  1  0  0  0
 22 23  1  0  0  0
 22 25  1  0  0  0
 22 63  1  0  0  0
 23 24  1  0  0  0
 23 64  1  0  0  0
 23 65  1  0  0  0
 24 66  1  0  0  0
 25 67  1  0  0  0
M  END
>  <i_m_Spin_multiplicity> (1)
1

>  <s_j_Task> (1)
Single Point

>  <s_j_QM_Method> (1)
DFT(b3lyp-d3)

>  <s_j_QM_Basis> (1)
cc-pvtz(-f)

>  <i_j_Number_of_canonical_orbitals> (1)
947

>  <i_j_Geometry_convergence_category> (1)
1

>  <r_j_Gas_Phase_Energy> (1)
-1126.91422830763

>  <r_j_Final_Energy> (1)
-1126.91422830763

>  <r_j_HOMO> (1)
-0.29864679676323

>  <r_j_LUMO> (1)
-0.0217806401331889

>  <r_j_Polarizability> (1)
273.694637239754

>  <r_j_QM_Dipole_(debye)> (1)
2.61258023526838

>  <r_j_QM_Dipole_X_(debye)> (1)
0.822384410918953

>  <r_j_QM_Dipole_Y_(debye)> (1)
-1.29259831146947

>  <r_j_QM_Dipole_Z_(debye)> (1)
-2.11623462110862

>  <r_j_Lowest_Frequency_(cm-1)> (1)
16.8783545151784

>  <r_j_Highest_Frequency_(cm-1)> (1)
3790.7780484184

>  <r_j_2nd_Lowest_Frequency_(cm-1)> (1)
26.2146218960845

>  <i_j_Num_Negative_Frequencies> (1)
0

>  <r_j_Zero_Point_Energy_(kcal/mol)> (1)
384.438362109073

>  <r_j_Entropy_(cal/mol/K)_298.15K_1.00E+00atm> (1)
184.483013752788

>  <r_j_Enthalpy_(kcal/mol)_298.15K_1.00E+00atm> (1)
18.9011762991245

>  <r_j_Free_Energy_(kcal/mol)_298.15K_1.00E+00atm> (1)
-36.1024342512693

>  <r_j_Internal_Energy_(kcal/mol)_298.15K_1.00E+00atm> (1)
18.3086907102973

>  <r_j_Heat_Capacity_(cal/mol/K)_298.15K_1.00E+00atm> (1)
111.680752427244

>  <r_j_ln(Q)_298.15K_1.00E+00atm> (1)
60.9338605563858

>  <r_j_Total_Internal_Energy_(au)_298.15K_1.00E+00atm> (1)
-1126.27241002109

>  <r_j_Total_Enthalpy_(au)_298.15K_1.00E+00atm> (1)
-1126.2714658352

>  <r_j_Total_Free_Energy_(au)_298.15K_1.00E+00atm> (1)
-1126.35911966862

>  <r_lp_tautomer_probability> (1)
1

>  <r_epik_Ionization_Penalty> (1)
  0.0000

>  <r_epik_Ionization_Penalty_Charging> (1)
  0.0000

>  <r_epik_Ionization_Penalty_Neutral> (1)
  0.0000

>  <r_epik_State_Penalty> (1)
  0.0000

>  <r_epik_Charging_Adjusted_Penalty> (1)
0

>  <i_epik_Tot_Q> (1)
0

>  <i_epik_Tot_abs_Q> (1)
0

>  <s_lp_Force_Field> (1)
S-OPLS

>  <r_lp_Energy> (1)
7.612905

>  <b_lp_Chiralities_Consistent> (1)
1

>  <s_epik_Chemistry_Notes> (1)
This compound has an ester and may undergo hydrolysis at high or low pH.

$$$$
