24730_Triisopropanolamine
                    3D
 Schrodinger Suite 2021-3.
 35 34  0  0  1  0            999 V2000
   -2.0182    1.6358   -0.1927 C   0  0  0  0  0  0
   -0.5086    1.4386   -0.1132 C   0  0  0  0  0  0
   -0.1563    0.0343    0.3768 C   0  0  0  0  0  0
    1.3402   -0.1679    0.3157 N   0  3  1  0  0  0
    2.0505    0.3736    1.5351 C   0  0  0  0  0  0
    3.4664    0.8208    1.1670 C   0  0  0  0  0  0
    4.1150    1.5871    2.3147 C   0  0  0  0  0  0
    3.2703    1.6275    0.0033 O   0  0  0  0  0  0
    1.7331   -1.5940    0.0098 C   0  0  0  0  0  0
    1.5185   -2.0245   -1.4573 C   0  0  0  0  0  0
    2.2273   -1.1090   -2.4489 C   0  0  0  0  0  0
    2.0991   -3.3154   -1.5643 O   0  0  0  0  0  0
    0.1234    1.5121   -1.3936 O   0  0  0  0  0  0
   -2.4832    1.5322    0.7927 H   0  0  0  0  0  0
   -2.4629    0.9080   -0.8771 H   0  0  0  0  0  0
   -2.2460    2.6385   -0.5646 H   0  0  0  0  0  0
   -0.0724    2.1872    0.5658 H   0  0  0  0  0  0
   -0.4925   -0.1536    1.3982 H   0  0  0  0  0  0
   -0.6142   -0.6976   -0.2900 H   0  0  0  0  0  0
    1.4834    1.2393    1.8824 H   0  0  0  0  0  0
    2.0428   -0.3949    2.3105 H   0  0  0  0  0  0
    4.0812   -0.0580    0.9205 H   0  0  0  0  0  0
    4.2005    0.9616    3.2087 H   0  0  0  0  0  0
    3.5311    2.4796    2.5572 H   0  0  0  0  0  0
    5.1240    1.9021    2.0342 H   0  0  0  0  0  0
    4.1262    1.9071   -0.3477 H   0  0  0  0  0  0
    2.7981   -1.6973    0.2223 H   0  0  0  0  0  0
    1.1798   -2.2343    0.7027 H   0  0  0  0  0  0
    0.4456   -2.0526   -1.6963 H   0  0  0  0  0  0
    1.7563   -0.1228   -2.4980 H   0  0  0  0  0  0
    2.1745   -1.5600   -3.4418 H   0  0  0  0  0  0
    3.2837   -0.9972   -2.1833 H   0  0  0  0  0  0
    1.4514   -3.9885   -1.3178 H   0  0  0  0  0  0
    0.1150    2.4249   -1.7100 H   0  0  0  0  0  0
    1.6627    0.4350   -0.4644 H   0  0  0  0  0  0
  1  2  1  0  0  0
  1 14  1  0  0  0
  1 15  1  0  0  0
  1 16  1  0  0  0
  2  3  1  0  0  0
  2 13  1  0  0  0
  2 17  1  0  0  0
  3  4  1  0  0  0
  3 18  1  0  0  0
  3 19  1  0  0  0
  4  5  1  0  0  0
  4  9  1  0  0  0
  4 35  1  0  0  0
  5  6  1  0  0  0
  5 20  1  0  0  0
  5 21  1  0  0  0
  6  7  1  0  0  0
  6  8  1  0  0  0
  6 22  1  0  0  0
  7 23  1  0  0  0
  7 24  1  0  0  0
  7 25  1  0  0  0
  8 26  1  0  0  0
  9 10  1  0  0  0
  9 27  1  0  0  0
  9 28  1  0  0  0
 10 11  1  0  0  0
 10 12  1  0  0  0
 10 29  1  0  0  0
 11 30  1  0  0  0
 11 31  1  0  0  0
 11 32  1  0  0  0
 12 33  1  0  0  0
 13 34  1  0  0  0
M  END
>  <i_m_Spin_multiplicity> (1)
1

>  <s_j_Task> (1)
Single Point

>  <s_j_QM_Method> (1)
DFT(b3lyp-d3)

>  <s_j_QM_Basis> (1)
cc-pvtz(-f)

>  <i_j_Number_of_canonical_orbitals> (1)
494

>  <i_j_Geometry_convergence_category> (1)
1

>  <r_j_Gas_Phase_Energy> (1)
-636.668878164425

>  <r_j_Final_Energy> (1)
-636.668878164425

>  <r_j_HOMO> (1)
-0.417539621164091

>  <r_j_LUMO> (1)
-0.116877766153903

>  <r_j_Polarizability> (1)
125.260463458547

>  <r_j_QM_Dipole_(debye)> (1)
3.39609898464916

>  <r_j_QM_Dipole_X_(debye)> (1)
-1.11944825604496

>  <r_j_QM_Dipole_Y_(debye)> (1)
1.12701096228162

>  <r_j_QM_Dipole_Z_(debye)> (1)
3.0016945558251

>  <r_j_Lowest_Frequency_(cm-1)> (1)
64.4741362583639

>  <r_j_Highest_Frequency_(cm-1)> (1)
3775.97527351852

>  <r_j_2nd_Lowest_Frequency_(cm-1)> (1)
67.1085364740995

>  <i_j_Num_Negative_Frequencies> (1)
0

>  <r_j_Zero_Point_Energy_(kcal/mol)> (1)
200.561348093175

>  <r_j_Entropy_(cal/mol/K)_298.15K_1.00E+00atm> (1)
121.146998836702

>  <r_j_Enthalpy_(kcal/mol)_298.15K_1.00E+00atm> (1)
10.3682258414909

>  <r_j_Free_Energy_(kcal/mol)_298.15K_1.00E+00atm> (1)
-25.7517518616718

>  <r_j_Internal_Energy_(kcal/mol)_298.15K_1.00E+00atm> (1)
9.77574025266358

>  <r_j_Heat_Capacity_(cal/mol/K)_298.15K_1.00E+00atm> (1)
60.2659426773227

>  <r_j_ln(Q)_298.15K_1.00E+00atm> (1)
43.4639294985099

>  <r_j_Total_Internal_Energy_(au)_298.15K_1.00E+00atm> (1)
-636.333684675878

>  <r_j_Total_Enthalpy_(au)_298.15K_1.00E+00atm> (1)
-636.332740489986

>  <r_j_Total_Free_Energy_(au)_298.15K_1.00E+00atm> (1)
-636.390301338754

>  <r_epik_Ionization_Penalty> (1)
  0.0638

>  <r_epik_Ionization_Penalty_Charging> (1)
  0.0638

>  <r_epik_Ionization_Penalty_Neutral> (1)
  0.0000

>  <r_epik_State_Penalty> (1)
  0.0556

>  <r_epik_Charging_Adjusted_Penalty> (1)
0.119405397475908

>  <i_epik_Tot_Q> (1)
1

>  <i_epik_Tot_abs_Q> (1)
1

>  <s_lp_Force_Field> (1)
S-OPLS

>  <r_lp_Energy> (1)
11.714755

>  <b_lp_Chiralities_Consistent> (1)
1

$$$$
