24752_Glycol ether dpnb
                    3D
 Schrodinger Suite 2021-3.
 35 34  0  0  1  0            999 V2000
   -2.1721    4.9374   -1.4897 C   0  0  0  0  0  0
   -1.8039    3.4598   -1.3341 C   0  0  0  0  0  0
   -2.1752    2.8950    0.0424 C   0  0  0  0  0  0
   -1.7852    1.4327    0.2118 C   0  0  0  0  0  0
   -0.3713    1.3334    0.1230 O   0  0  0  0  0  0
    0.1060    0.0039    0.1337 C   0  0  0  0  0  0
    1.6274    0.0395    0.0099 C   0  0  0  0  0  0
    2.0879    0.7502   -1.2600 C   0  0  0  0  0  0
    2.0303   -1.3322    0.0273 O   0  0  0  0  0  0
    3.3696   -1.5687    0.4462 C   0  0  0  0  0  0
    3.6895   -3.0162    0.0835 C   0  0  0  0  0  0
    5.1226   -3.3919    0.4292 C   0  0  0  0  0  0
    3.5181   -3.2036   -1.3163 O   0  0  0  0  0  0
   -1.8981    5.3166   -2.4797 H   0  0  0  0  0  0
   -1.6565    5.5525   -0.7431 H   0  0  0  0  0  0
   -3.2492    5.0946   -1.3588 H   0  0  0  0  0  0
   -2.3075    2.8685   -2.1115 H   0  0  0  0  0  0
   -0.7288    3.3213   -1.4914 H   0  0  0  0  0  0
   -1.6833    3.4803    0.8299 H   0  0  0  0  0  0
   -3.2569    2.9874    0.2080 H   0  0  0  0  0  0
   -2.1336    1.0433    1.1833 H   0  0  0  0  0  0
   -2.2586    0.8184   -0.5744 H   0  0  0  0  0  0
   -0.1706   -0.5183    1.0635 H   0  0  0  0  0  0
   -0.3093   -0.5766   -0.7080 H   0  0  0  0  0  0
    2.0317    0.5561    0.8941 H   0  0  0  0  0  0
    1.7178    1.7781   -1.2657 H   0  0  0  0  0  0
    1.6921    0.2307   -2.1391 H   0  0  0  0  0  0
    3.1787    0.7713   -1.3346 H   0  0  0  0  0  0
    4.0722   -0.9063   -0.0801 H   0  0  0  0  0  0
    3.4737   -1.3965    1.5292 H   0  0  0  0  0  0
    2.9916   -3.6621    0.6443 H   0  0  0  0  0  0
    5.3053   -3.3020    1.5048 H   0  0  0  0  0  0
    5.8232   -2.7431   -0.1062 H   0  0  0  0  0  0
    5.3182   -4.4239    0.1272 H   0  0  0  0  0  0
    2.6700   -2.7863   -1.5297 H   0  0  0  0  0  0
  1  2  1  0  0  0
  1 14  1  0  0  0
  1 15  1  0  0  0
  1 16  1  0  0  0
  2  3  1  0  0  0
  2 17  1  0  0  0
  2 18  1  0  0  0
  3  4  1  0  0  0
  3 19  1  0  0  0
  3 20  1  0  0  0
  4  5  1  0  0  0
  4 21  1  0  0  0
  4 22  1  0  0  0
  5  6  1  0  0  0
  6  7  1  0  0  0
  6 23  1  0  0  0
  6 24  1  0  0  0
  7  8  1  0  0  0
  7  9  1  0  0  0
  7 25  1  0  0  0
  8 26  1  0  0  0
  8 27  1  0  0  0
  8 28  1  0  0  0
  9 10  1  0  0  0
 10 11  1  0  0  0
 10 29  1  0  0  0
 10 30  1  0  0  0
 11 12  1  0  0  0
 11 13  1  0  0  0
 11 31  1  0  0  0
 12 32  1  0  0  0
 12 33  1  0  0  0
 12 34  1  0  0  0
 13 35  1  0  0  0
M  END
>  <i_m_Spin_multiplicity> (1)
1

>  <s_j_Task> (1)
Single Point

>  <s_j_QM_Method> (1)
DFT(b3lyp-d3)

>  <s_j_QM_Basis> (1)
cc-pvtz(-f)

>  <i_j_Number_of_canonical_orbitals> (1)
496

>  <i_j_Geometry_convergence_category> (1)
0

>  <r_j_Gas_Phase_Energy> (1)
-620.222591165991

>  <r_j_Final_Energy> (1)
-620.222591165991

>  <r_j_HOMO> (1)
-0.259761041350049

>  <r_j_LUMO> (1)
0.0211356629428883

>  <r_j_Polarizability> (1)
138.183384335365

>  <r_j_QM_Dipole_(debye)> (1)
2.0280276173714

>  <r_j_QM_Dipole_X_(debye)> (1)
-1.05873057230595

>  <r_j_QM_Dipole_Y_(debye)> (1)
1.1509429787032

>  <r_j_QM_Dipole_Z_(debye)> (1)
1.29124585260113

>  <r_j_Lowest_Frequency_(cm-1)> (1)
38.3836554354088

>  <r_j_Highest_Frequency_(cm-1)> (1)
3721.95090436713

>  <r_j_2nd_Lowest_Frequency_(cm-1)> (1)
48.6764410982771

>  <i_j_Num_Negative_Frequencies> (1)
0

>  <r_j_Zero_Point_Energy_(kcal/mol)> (1)
198.257283615209

>  <r_j_Entropy_(cal/mol/K)_298.15K_1.00E+00atm> (1)
122.47651260788

>  <r_j_Enthalpy_(kcal/mol)_298.15K_1.00E+00atm> (1)
10.3600940932623

>  <r_j_Free_Energy_(kcal/mol)_298.15K_1.00E+00atm> (1)
-26.1562781407771

>  <r_j_Internal_Energy_(kcal/mol)_298.15K_1.00E+00atm> (1)
9.767608504435

>  <r_j_Heat_Capacity_(cal/mol/K)_298.15K_1.00E+00atm> (1)
58.5919831415739

>  <r_j_ln(Q)_298.15K_1.00E+00atm> (1)
44.1466908799404

>  <r_j_Total_Internal_Energy_(au)_298.15K_1.00E+00atm> (1)
-619.891082396697

>  <r_j_Total_Enthalpy_(au)_298.15K_1.00E+00atm> (1)
-619.890138210805

>  <r_j_Total_Free_Energy_(au)_298.15K_1.00E+00atm> (1)
-619.948330754471

>  <r_lp_tautomer_probability> (1)
1

>  <r_epik_Ionization_Penalty> (1)
  0.0000

>  <r_epik_Ionization_Penalty_Charging> (1)
  0.0000

>  <r_epik_Ionization_Penalty_Neutral> (1)
  0.0000

>  <r_epik_State_Penalty> (1)
  0.0000

>  <r_epik_Charging_Adjusted_Penalty> (1)
0

>  <i_epik_Tot_Q> (1)
0

>  <i_epik_Tot_abs_Q> (1)
0

>  <s_lp_Force_Field> (1)
S-OPLS

>  <r_lp_Energy> (1)
1.784591

>  <b_lp_Chiralities_Consistent> (1)
1

$$$$
