247705_Ergosterol
                    3D
 Schrodinger Suite 2021-3.
 73 76  0  0  1  0            999 V2000
   -2.5048   -0.0428   -2.7875 C   0  0  0  0  0  0
   -3.0919    0.1323   -1.3803 C   0  0  0  0  0  0
   -3.5232    1.5896   -1.1542 C   0  0  0  0  0  0
   -2.1116   -0.4037   -0.2967 C   0  0  0  0  0  0
   -2.7527   -0.4332    1.1053 C   0  0  0  0  0  0
   -0.8086    0.3556   -0.2413 C   0  0  0  0  0  0
    0.4011   -0.1857   -0.3986 C   0  0  0  0  0  0
    1.7315    0.5175   -0.2735 C   0  0  0  0  0  0
    2.4586    0.4697   -1.6328 C   0  0  0  0  0  0
    2.5801   -0.1407    0.8434 C   0  0  0  0  0  0
    4.0658    0.2673    0.9020 C   0  0  0  0  0  0
    4.5104   -0.2768    2.2631 C   0  0  0  0  0  0
    3.3599    0.1750    3.1895 C   0  0  0  0  0  0
    2.0589    0.0067    2.3317 C   0  0  0  0  0  0
    1.3046   -1.2764    2.7367 C   0  0  0  0  0  0
    0.9807   -1.3377    4.2280 C   0  0  0  0  0  0
    2.2673   -1.3870    5.0716 C   0  0  0  0  0  0
    3.3584   -0.4405    4.5794 C   0  0  0  0  0  0
    4.4097   -0.2421    5.4005 C   0  0  0  0  0  0
    4.4595   -0.8139    6.7361 C   0  0  0  0  0  0
    3.3596   -1.2967    7.3486 C   0  0  0  0  0  0
    2.0134   -1.2699    6.6125 C   0  0  0  0  0  0
    1.1219   -2.4684    7.0482 C   0  0  0  0  0  0
    1.1363   -2.7709    8.5521 C   0  0  0  0  0  0
    2.5721   -2.9700    9.0583 C   0  0  0  0  0  0
    3.3741   -1.6867    8.8090 C   0  0  0  0  0  0
    3.1955   -4.0922    8.4305 O   0  0  0  0  0  0
    1.3301    0.0709    6.9825 C   0  0  0  0  0  0
    1.1744    1.2471    2.5615 C   0  0  0  0  0  0
   -1.5931    0.5532   -2.9056 H   0  0  0  0  0  0
   -3.2191    0.2747   -3.5550 H   0  0  0  0  0  0
   -2.2424   -1.0886   -2.9825 H   0  0  0  0  0  0
   -3.9939   -0.4937   -1.3110 H   0  0  0  0  0  0
   -2.6743    2.2756   -1.2483 H   0  0  0  0  0  0
   -3.9710    1.7403   -0.1674 H   0  0  0  0  0  0
   -4.2658    1.8879   -1.9016 H   0  0  0  0  0  0
   -1.8804   -1.4422   -0.5733 H   0  0  0  0  0  0
   -2.1047   -0.9596    1.8132 H   0  0  0  0  0  0
   -3.7234   -0.9416    1.0866 H   0  0  0  0  0  0
   -2.9104    0.5771    1.4975 H   0  0  0  0  0  0
   -0.8818    1.4165    0.0022 H   0  0  0  0  0  0
    0.4685   -1.2512   -0.6332 H   0  0  0  0  0  0
    1.5568    1.5715   -0.0252 H   0  0  0  0  0  0
    1.8228    0.8863   -2.4203 H   0  0  0  0  0  0
    2.7008   -0.5635   -1.9101 H   0  0  0  0  0  0
    3.3920    1.0396   -1.6124 H   0  0  0  0  0  0
    2.5792   -1.2177    0.6181 H   0  0  0  0  0  0
    4.6481   -0.1313    0.0662 H   0  0  0  0  0  0
    4.1693    1.3612    0.8823 H   0  0  0  0  0  0
    4.5703   -1.3725    2.2355 H   0  0  0  0  0  0
    5.4846    0.0953    2.5940 H   0  0  0  0  0  0
    3.5075    1.2555    3.3301 H   0  0  0  0  0  0
    0.3898   -1.3548    2.1386 H   0  0  0  0  0  0
    1.9215   -2.1483    2.4779 H   0  0  0  0  0  0
    0.3654   -0.4771    4.5075 H   0  0  0  0  0  0
    0.3758   -2.2259    4.4349 H   0  0  0  0  0  0
    2.6901   -2.3992    4.9281 H   0  0  0  0  0  0
    5.2529    0.3627    5.0725 H   0  0  0  0  0  0
    5.4001   -0.7674    7.2820 H   0  0  0  0  0  0
    0.0927   -2.2949    6.7178 H   0  0  0  0  0  0
    1.4684   -3.3692    6.5258 H   0  0  0  0  0  0
    0.6672   -1.9564    9.1196 H   0  0  0  0  0  0
    0.5536   -3.6773    8.7476 H   0  0  0  0  0  0
    2.5609   -3.1993   10.1300 H   0  0  0  0  0  0
    4.4052   -1.8119    9.1572 H   0  0  0  0  0  0
    2.9284   -0.8808    9.4111 H   0  0  0  0  0  0
    3.5735   -3.7770    7.5965 H   0  0  0  0  0  0
    0.3212    0.1405    6.5649 H   0  0  0  0  0  0
    1.9201    0.9118    6.6069 H   0  0  0  0  0  0
    1.2415    0.1786    8.0672 H   0  0  0  0  0  0
    1.0386    1.4259    3.6329 H   0  0  0  0  0  0
    0.1869    1.1400    2.1087 H   0  0  0  0  0  0
    1.6456    2.1462    2.1501 H   0  0  0  0  0  0
  1  2  1  0  0  0
  1 30  1  0  0  0
  1 31  1  0  0  0
  1 32  1  0  0  0
  2  3  1  0  0  0
  2  4  1  0  0  0
  2 33  1  0  0  0
  3 34  1  0  0  0
  3 35  1  0  0  0
  3 36  1  0  0  0
  4  5  1  0  0  0
  4  6  1  0  0  0
  4 37  1  0  0  0
  5 38  1  0  0  0
  5 39  1  0  0  0
  5 40  1  0  0  0
  6  7  2  0  0  0
  6 41  1  0  0  0
  7  8  1  0  0  0
  7 42  1  0  0  0
  8  9  1  0  0  0
  8 10  1  0  0  0
  8 43  1  0  0  0
  9 44  1  0  0  0
  9 45  1  0  0  0
  9 46  1  0  0  0
 10 14  1  0  0  0
 10 11  1  0  0  0
 10 47  1  0  0  0
 11 12  1  0  0  0
 11 48  1  0  0  0
 11 49  1  0  0  0
 12 13  1  0  0  0
 12 50  1  0  0  0
 12 51  1  0  0  0
 13 18  1  0  0  0
 13 14  1  0  0  0
 13 52  1  0  0  0
 14 15  1  0  0  0
 14 29  1  0  0  0
 15 16  1  0  0  0
 15 53  1  0  0  0
 15 54  1  0  0  0
 16 17  1  0  0  0
 16 55  1  0  0  0
 16 56  1  0  0  0
 17 22  1  0  0  0
 17 18  1  0  0  0
 17 57  1  0  0  0
 18 19  2  0  0  0
 19 20  1  0  0  0
 19 58  1  0  0  0
 20 21  2  0  0  0
 20 59  1  0  0  0
 21 26  1  0  0  0
 21 22  1  0  0  0
 22 23  1  0  0  0
 22 28  1  0  0  0
 23 24  1  0  0  0
 23 60  1  0  0  0
 23 61  1  0  0  0
 24 25  1  0  0  0
 24 62  1  0  0  0
 24 63  1  0  0  0
 25 26  1  0  0  0
 25 27  1  0  0  0
 25 64  1  0  0  0
 26 65  1  0  0  0
 26 66  1  0  0  0
 27 67  1  0  0  0
 28 68  1  0  0  0
 28 69  1  0  0  0
 28 70  1  0  0  0
 29 71  1  0  0  0
 29 72  1  0  0  0
 29 73  1  0  0  0
M  END
>  <i_m_Spin_multiplicity> (1)
1

>  <s_j_Task> (1)
Single Point

>  <s_j_QM_Method> (1)
DFT(b3lyp-d3)

>  <s_j_QM_Basis> (1)
cc-pvtz(-f)

>  <i_j_Number_of_canonical_orbitals> (1)
1045

>  <i_j_Geometry_convergence_category> (1)
3

>  <r_j_Gas_Phase_Energy> (1)
-1169.14209618149

>  <r_j_Final_Energy> (1)
-1169.14209618149

>  <r_j_HOMO> (1)
-0.240906433171174

>  <r_j_LUMO> (1)
-0.0706732643005893

>  <r_j_Polarizability> (1)
327.330456228965

>  <r_j_QM_Dipole_(debye)> (1)
2.17698419061636

>  <r_j_QM_Dipole_X_(debye)> (1)
-0.719433294235833

>  <r_j_QM_Dipole_Y_(debye)> (1)
1.69016278091262

>  <r_j_QM_Dipole_Z_(debye)> (1)
-1.16834313254123

>  <r_j_Lowest_Frequency_(cm-1)> (1)
34.3289907745217

>  <r_j_Highest_Frequency_(cm-1)> (1)
3714.51783935297

>  <r_j_2nd_Lowest_Frequency_(cm-1)> (1)
43.5283075698126

>  <i_j_Num_Negative_Frequencies> (1)
0

>  <r_j_Zero_Point_Energy_(kcal/mol)> (1)
417.159695125767

>  <r_j_Entropy_(cal/mol/K)_298.15K_1.00E+00atm> (1)
171.180909689608

>  <r_j_Enthalpy_(kcal/mol)_298.15K_1.00E+00atm> (1)
18.0530667045473

>  <r_j_Free_Energy_(kcal/mol)_298.15K_1.00E+00atm> (1)
-32.9845215194093

>  <r_j_Internal_Energy_(kcal/mol)_298.15K_1.00E+00atm> (1)
17.46058111572

>  <r_j_Heat_Capacity_(cal/mol/K)_298.15K_1.00E+00atm> (1)
118.715826903447

>  <r_j_ln(Q)_298.15K_1.00E+00atm> (1)
55.6714325907852

>  <r_j_Total_Internal_Energy_(au)_298.15K_1.00E+00atm> (1)
-1168.44948467996

>  <r_j_Total_Enthalpy_(au)_298.15K_1.00E+00atm> (1)
-1168.44854049407

>  <r_j_Total_Free_Energy_(au)_298.15K_1.00E+00atm> (1)
-1168.52987406856

>  <r_lp_tautomer_probability> (1)
1

>  <r_epik_Ionization_Penalty> (1)
  0.0000

>  <r_epik_Ionization_Penalty_Charging> (1)
  0.0000

>  <r_epik_Ionization_Penalty_Neutral> (1)
  0.0000

>  <r_epik_State_Penalty> (1)
  0.0000

>  <r_epik_Charging_Adjusted_Penalty> (1)
0

>  <i_epik_Tot_Q> (1)
0

>  <i_epik_Tot_abs_Q> (1)
0

>  <s_lp_Force_Field> (1)
S-OPLS

>  <r_lp_Energy> (1)
41.423493

>  <b_lp_Chiralities_Consistent> (1)
1

$$$$
