24823_Ozone
                    3D
 Schrodinger Suite 2021-3.
  3  2  0  0  1  0            999 V2000
    0.0000    0.0000    0.4352 O   0  3  1  0  0  0
    0.0000    1.0830   -0.2176 O   0  5  0  0  0  0
    0.0000   -1.0830   -0.2176 O   0  0  0  0  0  0
  1  2  1  0  0  0
  1  3  2  0  0  0
M  END
>  <i_m_Spin_multiplicity> (1)
1

>  <s_j_Task> (1)
Single Point

>  <s_j_QM_Method> (1)
DFT(b3lyp-d3)

>  <s_j_QM_Basis> (1)
cc-pvtz(-f)

>  <i_j_Number_of_canonical_orbitals> (1)
69

>  <r_j_Gas_Phase_Energy> (1)
-225.492923793612

>  <r_j_Final_Energy> (1)
-225.492923793612

>  <r_j_Polarizability> (1)
14.421535637508

>  <r_j_QM_Dipole_(debye)> (1)
0.633987024446349

>  <r_j_QM_Dipole_X_(debye)> (1)
3.2349642115641e-07

>  <r_j_QM_Dipole_Y_(debye)> (1)
-0.00157967057687031

>  <r_j_QM_Dipole_Z_(debye)> (1)
0.633985056454093

>  <r_j_Zero_Point_Energy_(kcal/mol)> (1)
4.49114751629267

>  <r_j_Entropy_(cal/mol/K)_298.15K_1.00E+00atm> (1)
56.9186028558079

>  <r_j_Enthalpy_(kcal/mol)_298.15K_1.00E+00atm> (1)
2.45306284626678

>  <r_j_Free_Energy_(kcal/mol)_298.15K_1.00E+00atm> (1)
-14.5172185951924

>  <r_j_Internal_Energy_(kcal/mol)_298.15K_1.00E+00atm> (1)
1.8605772574395

>  <r_j_Heat_Capacity_(cal/mol/K)_298.15K_1.00E+00atm> (1)
7.13166143383464

>  <r_j_ln(Q)_298.15K_1.00E+00atm> (1)
24.5022307191079

>  <r_j_Total_Internal_Energy_(au)_298.15K_1.00E+00atm> (1)
-225.482801675815

>  <r_j_Total_Enthalpy_(au)_298.15K_1.00E+00atm> (1)
-225.481857489923

>  <r_j_Total_Free_Energy_(au)_298.15K_1.00E+00atm> (1)
-225.508901355

>  <r_j_HOMO> (1)
-0.344068766507944

>  <r_j_LUMO> (1)
-0.193099382426973

>  <r_j_Lowest_Frequency_(cm-1)> (1)
735.775305811173

>  <r_j_Highest_Frequency_(cm-1)> (1)
1234.29171244505

>  <r_j_2nd_Lowest_Frequency_(cm-1)> (1)
1171.5363888695

>  <i_j_Num_Negative_Frequencies> (1)
0

>  <i_j_Geometry_convergence_category> (1)
0

$$$$
