24883_1,3-dichloropropene
                    3D
 Schrodinger Suite 2021-3.
  9  8  0  0  1  0            999 V2000
    0.0355    0.0197    0.0132 C   0  0  0  0  0  0
    1.5241    0.0956    0.0082 C   0  0  0  0  0  0
    2.2384   -0.0948    1.1158 C   0  0  0  0  0  0
    3.9827   -0.0450    1.1504 Cl  0  0  0  0  0  0
   -0.7110    1.6463   -0.3901 Cl  0  0  0  0  0  0
   -0.3387   -0.6642   -0.7512 H   0  0  0  0  0  0
   -0.3635   -0.2722    0.9857 H   0  0  0  0  0  0
    2.0129    0.3140   -0.9366 H   0  0  0  0  0  0
    1.7993   -0.2983    2.0870 H   0  0  0  0  0  0
  1  2  1  0  0  0
  1  5  1  0  0  0
  1  6  1  0  0  0
  1  7  1  0  0  0
  2  3  2  0  0  0
  2  8  1  0  0  0
  3  4  1  0  0  0
  3  9  1  0  0  0
M  END
>  <i_m_Spin_multiplicity> (1)
1

>  <s_j_Task> (1)
Single Point

>  <s_j_QM_Method> (1)
DFT(b3lyp-d3)

>  <s_j_QM_Basis> (1)
cc-pvtz(-f)

>  <i_j_Number_of_canonical_orbitals> (1)
158

>  <i_j_Geometry_convergence_category> (1)
0

>  <r_j_Gas_Phase_Energy> (1)
-1037.21694753491

>  <r_j_Final_Energy> (1)
-1037.21694753491

>  <r_j_HOMO> (1)
-0.274650630736002

>  <r_j_LUMO> (1)
-0.0423123709484728

>  <r_j_Polarizability> (1)
62.1295057960922

>  <r_j_QM_Dipole_(debye)> (1)
1.82601133474855

>  <r_j_QM_Dipole_X_(debye)> (1)
-0.412548413815415

>  <r_j_QM_Dipole_Y_(debye)> (1)
-1.74253724207491

>  <r_j_QM_Dipole_Z_(debye)> (1)
0.357330604441479

>  <r_j_Lowest_Frequency_(cm-1)> (1)
102.301656756413

>  <r_j_Highest_Frequency_(cm-1)> (1)
3150.96631423431

>  <r_j_2nd_Lowest_Frequency_(cm-1)> (1)
189.128357250737

>  <i_j_Num_Negative_Frequencies> (1)
0

>  <r_j_Zero_Point_Energy_(kcal/mol)> (1)
39.0906238301675

>  <r_j_Entropy_(cal/mol/K)_298.15K_1.00E+00atm> (1)
78.0565186755989

>  <r_j_Enthalpy_(kcal/mol)_298.15K_1.00E+00atm> (1)
4.1582460202219

>  <r_j_Free_Energy_(kcal/mol)_298.15K_1.00E+00atm> (1)
-19.1143050229079

>  <r_j_Internal_Energy_(kcal/mol)_298.15K_1.00E+00atm> (1)
3.56576043139462

>  <r_j_Heat_Capacity_(cal/mol/K)_298.15K_1.00E+00atm> (1)
18.4888024638606

>  <r_j_ln(Q)_298.15K_1.00E+00atm> (1)
32.261215096795

>  <r_j_Total_Internal_Energy_(au)_298.15K_1.00E+00atm> (1)
-1037.14897025919

>  <r_j_Total_Enthalpy_(au)_298.15K_1.00E+00atm> (1)
-1037.1480260733

>  <r_j_Total_Free_Energy_(au)_298.15K_1.00E+00atm> (1)
-1037.18511324434

>  <r_lp_tautomer_probability> (1)
1

>  <r_epik_Ionization_Penalty> (1)
  0.0000

>  <r_epik_Ionization_Penalty_Charging> (1)
  0.0000

>  <r_epik_Ionization_Penalty_Neutral> (1)
  0.0000

>  <r_epik_State_Penalty> (1)
  0.0000

>  <r_epik_Charging_Adjusted_Penalty> (1)
0

>  <i_epik_Tot_Q> (1)
0

>  <i_epik_Tot_abs_Q> (1)
0

>  <s_lp_Force_Field> (1)
S-OPLS

>  <r_lp_Energy> (1)
-0.568824

>  <b_lp_Chiralities_Consistent> (1)
1

$$$$
