24977797_2,5,5-Trimethyl-3-hexyn-1-ol
                    3D
 Schrodinger Suite 2021-3.
 26 25  0  0  1  0            999 V2000
   -0.5064   -0.7599    1.2407 C   0  0  0  0  0  0
    0.0313    0.0395    0.0378 C   0  0  0  0  0  0
    1.5776   -0.0286   -0.0361 C   0  0  0  0  0  0
    2.1020    0.5828   -1.2016 O   0  0  0  0  0  0
   -0.5033    1.4185    0.0287 C   0  0  0  0  0  0
   -0.9295    2.5636    0.0205 C   0  0  0  0  0  0
   -1.4269    3.9580    0.0099 C   0  0  0  0  0  0
   -0.2948    4.9077   -0.4460 C   0  0  0  0  0  0
   -1.8884    4.3550    1.4314 C   0  0  0  0  0  0
   -2.6193    4.0758   -0.9675 C   0  0  0  0  0  0
   -1.5976   -0.7709    1.2654 H   0  0  0  0  0  0
   -0.1567   -0.3482    2.1890 H   0  0  0  0  0  0
   -0.1794   -1.7993    1.1964 H   0  0  0  0  0  0
   -0.3667   -0.4251   -0.8657 H   0  0  0  0  0  0
    2.0302    0.4443    0.8370 H   0  0  0  0  0  0
    1.9090   -1.0677   -0.0339 H   0  0  0  0  0  0
    3.0592    0.5120   -1.1799 H   0  0  0  0  0  0
   -0.6315    5.9452   -0.4620 H   0  0  0  0  0  0
    0.0564    4.6712   -1.4523 H   0  0  0  0  0  0
    0.5695    4.8632    0.2197 H   0  0  0  0  0  0
   -1.0764    4.2909    2.1583 H   0  0  0  0  0  0
   -2.6989    3.7181    1.7907 H   0  0  0  0  0  0
   -2.2563    5.3818    1.4549 H   0  0  0  0  0  0
   -3.0055    5.0957   -0.9980 H   0  0  0  0  0  0
   -3.4501    3.4290   -0.6788 H   0  0  0  0  0  0
   -2.3388    3.8107   -1.9888 H   0  0  0  0  0  0
  1  2  1  0  0  0
  1 11  1  0  0  0
  1 12  1  0  0  0
  1 13  1  0  0  0
  2  3  1  0  0  0
  2  5  1  0  0  0
  2 14  1  0  0  0
  3  4  1  0  0  0
  3 15  1  0  0  0
  3 16  1  0  0  0
  4 17  1  0  0  0
  5  6  3  0  0  0
  6  7  1  0  0  0
  7  8  1  0  0  0
  7  9  1  0  0  0
  7 10  1  0  0  0
  8 18  1  0  0  0
  8 19  1  0  0  0
  8 20  1  0  0  0
  9 21  1  0  0  0
  9 22  1  0  0  0
  9 23  1  0  0  0
 10 24  1  0  0  0
 10 25  1  0  0  0
 10 26  1  0  0  0
M  END
>  <s_lp_Force_Field> (1)
S-OPLS

>  <r_lp_Energy> (1)
3.22548

>  <b_lp_Chiralities_Consistent> (1)
1

>  <r_epik_Ionization_Penalty> (1)
  0.0000

>  <r_epik_Ionization_Penalty_Charging> (1)
  0.0000

>  <r_epik_Ionization_Penalty_Neutral> (1)
  0.0000

>  <r_epik_State_Penalty> (1)
  0.0000

>  <r_epik_Charging_Adjusted_Penalty> (1)
0

>  <i_epik_Tot_Q> (1)
0

>  <i_epik_Tot_abs_Q> (1)
0

>  <i_m_Spin_multiplicity> (1)
1

>  <s_j_Task> (1)
Single Point

>  <s_j_QM_Method> (1)
DFT(b3lyp-d3)

>  <s_j_QM_Basis> (1)
cc-pvtz(-f)

>  <i_j_Number_of_canonical_orbitals> (1)
372

>  <r_j_Gas_Phase_Energy> (1)
-427.923241623387

>  <r_j_Final_Energy> (1)
-427.923241623387

>  <r_j_HOMO> (1)
-0.24639610249088

>  <r_j_LUMO> (1)
0.0240057648922629

>  <r_j_Polarizability> (1)
114.089004270241

>  <r_j_QM_Dipole_(debye)> (1)
1.48108077281935

>  <r_j_QM_Dipole_X_(debye)> (1)
0.930743321845325

>  <r_j_QM_Dipole_Y_(debye)> (1)
-0.652730148372354

>  <r_j_QM_Dipole_Z_(debye)> (1)
0.949347395773172

>  <r_j_Lowest_Frequency_(cm-1)> (1)
-133.041976654245

>  <r_j_Highest_Frequency_(cm-1)> (1)
3843.70435839891

>  <r_j_2nd_Lowest_Frequency_(cm-1)> (1)
49.8933654895747

>  <i_j_Num_Negative_Frequencies> (1)
1

>  <r_j_Zero_Point_Energy_(kcal/mol)> (1)
144.183596824538

>  <r_j_Entropy_(cal/mol/K)_298.15K_1.00E+00atm> (1)
106.950807614504

>  <r_j_Enthalpy_(kcal/mol)_298.15K_1.00E+00atm> (1)
8.31709172164937

>  <r_j_Free_Energy_(kcal/mol)_298.15K_1.00E+00atm> (1)
-23.5702915686149

>  <r_j_Internal_Energy_(kcal/mol)_298.15K_1.00E+00atm> (1)
7.7246061328221

>  <r_j_Heat_Capacity_(cal/mol/K)_298.15K_1.00E+00atm> (1)
45.3632623914433

>  <r_j_ln(Q)_298.15K_1.00E+00atm> (1)
39.782050421291

>  <r_j_Total_Internal_Energy_(au)_298.15K_1.00E+00atm> (1)
-427.681160491198

>  <r_j_Total_Enthalpy_(au)_298.15K_1.00E+00atm> (1)
-427.680216305306

>  <r_j_Total_Free_Energy_(au)_298.15K_1.00E+00atm> (1)
-427.731032085488

>  <r_lp_tautomer_probability> (1)
1

$$$$
