25054_Tripropylene glycol methyl ether
                    3D
 Schrodinger Suite 2021-3.
 36 35  0  0  1  0            999 V2000
   -2.1188    2.8932   -0.6054 C   0  0  0  0  0  0
   -1.8844    1.5319    0.0312 C   0  0  0  0  0  0
   -2.3485    1.4868    1.4893 C   0  0  0  0  0  0
   -3.7630    1.6424    1.5004 O   0  0  0  0  0  0
   -0.4825    1.2594   -0.0119 O   0  0  0  0  0  0
   -0.1461   -0.1092   -0.1578 C   0  0  0  0  0  0
    1.3725   -0.2665   -0.0340 C   0  0  0  0  0  0
    1.8918    0.2690    1.2953 C   0  0  0  0  0  0
    2.0643    0.4487   -1.0526 O   0  0  0  0  0  0
    2.0470   -0.1250   -2.3501 C   0  0  0  0  0  0
    2.0045    1.0124   -3.3700 C   0  0  0  0  0  0
    0.7069    1.8128   -3.2586 C   0  0  0  0  0  0
    2.1662    0.3805   -4.6376 O   0  0  0  0  0  0
    2.4440    1.2663   -5.7026 C   0  0  0  0  0  0
   -3.1697    3.1752   -0.5058 H   0  0  0  0  0  0
   -1.8460    2.8740   -1.6636 H   0  0  0  0  0  0
   -1.5013    3.6461   -0.1045 H   0  0  0  0  0  0
   -2.4394    0.7630   -0.5283 H   0  0  0  0  0  0
   -2.0422    0.5295    1.9400 H   0  0  0  0  0  0
   -1.8362    2.2913    2.0402 H   0  0  0  0  0  0
   -4.0538    1.7074    2.4180 H   0  0  0  0  0  0
   -0.6237   -0.7308    0.6172 H   0  0  0  0  0  0
   -0.4953   -0.4827   -1.1333 H   0  0  0  0  0  0
    1.5944   -1.3448   -0.1127 H   0  0  0  0  0  0
    1.4203   -0.2529    2.1342 H   0  0  0  0  0  0
    1.6614    1.3336    1.3714 H   0  0  0  0  0  0
    2.9741    0.1333    1.3564 H   0  0  0  0  0  0
    2.9457   -0.7360   -2.5168 H   0  0  0  0  0  0
    1.1724   -0.7715   -2.5095 H   0  0  0  0  0  0
    2.8634    1.6759   -3.1700 H   0  0  0  0  0  0
    0.5458    2.1009   -2.2171 H   0  0  0  0  0  0
   -0.1345    1.1900   -3.5838 H   0  0  0  0  0  0
    0.7262    2.7155   -3.8761 H   0  0  0  0  0  0
    2.6521    0.6530   -6.5835 H   0  0  0  0  0  0
    3.3257    1.8933   -5.4929 H   0  0  0  0  0  0
    1.5982    1.9304   -5.9335 H   0  0  0  0  0  0
  1  2  1  0  0  0
  1 15  1  0  0  0
  1 16  1  0  0  0
  1 17  1  0  0  0
  2  3  1  0  0  0
  2  5  1  0  0  0
  2 18  1  0  0  0
  3  4  1  0  0  0
  3 19  1  0  0  0
  3 20  1  0  0  0
  4 21  1  0  0  0
  5  6  1  0  0  0
  6  7  1  0  0  0
  6 22  1  0  0  0
  6 23  1  0  0  0
  7  8  1  0  0  0
  7  9  1  0  0  0
  7 24  1  0  0  0
  8 25  1  0  0  0
  8 26  1  0  0  0
  8 27  1  0  0  0
  9 10  1  0  0  0
 10 11  1  0  0  0
 10 28  1  0  0  0
 10 29  1  0  0  0
 11 12  1  0  0  0
 11 13  1  0  0  0
 11 30  1  0  0  0
 12 31  1  0  0  0
 12 32  1  0  0  0
 12 33  1  0  0  0
 13 14  1  0  0  0
 14 34  1  0  0  0
 14 35  1  0  0  0
 14 36  1  0  0  0
M  END
>  <i_m_Spin_multiplicity> (1)
1

>  <s_j_Task> (1)
Single Point

>  <s_j_QM_Method> (1)
DFT(b3lyp-d3)

>  <s_j_QM_Basis> (1)
cc-pvtz(-f)

>  <i_j_Number_of_canonical_orbitals> (1)
519

>  <i_j_Geometry_convergence_category> (1)
3

>  <r_j_Gas_Phase_Energy> (1)
-695.448373518617

>  <r_j_Final_Energy> (1)
-695.448373518617

>  <r_j_HOMO> (1)
-0.228875732760553

>  <r_j_LUMO> (1)
0.0222297086221774

>  <r_j_Polarizability> (1)
140.408880301836

>  <r_j_QM_Dipole_(debye)> (1)
1.71566452752084

>  <r_j_QM_Dipole_X_(debye)> (1)
-0.782037875058793

>  <r_j_QM_Dipole_Y_(debye)> (1)
-0.382579555351398

>  <r_j_QM_Dipole_Z_(debye)> (1)
1.47836207229283

>  <r_j_Lowest_Frequency_(cm-1)> (1)
39.79104725872

>  <r_j_Highest_Frequency_(cm-1)> (1)
3782.41882351161

>  <r_j_2nd_Lowest_Frequency_(cm-1)> (1)
52.9128070822933

>  <i_j_Num_Negative_Frequencies> (1)
0

>  <r_j_Zero_Point_Energy_(kcal/mol)> (1)
200.728751065533

>  <r_j_Entropy_(cal/mol/K)_298.15K_1.00E+00atm> (1)
127.045727271548

>  <r_j_Enthalpy_(kcal/mol)_298.15K_1.00E+00atm> (1)
11.0537407031749

>  <r_j_Free_Energy_(kcal/mol)_298.15K_1.00E+00atm> (1)
-26.8249428828372

>  <r_j_Internal_Energy_(kcal/mol)_298.15K_1.00E+00atm> (1)
10.4612551143477

>  <r_j_Heat_Capacity_(cal/mol/K)_298.15K_1.00E+00atm> (1)
62.7886367825427

>  <r_j_ln(Q)_298.15K_1.00E+00atm> (1)
45.2752664177581

>  <r_j_Total_Internal_Energy_(au)_298.15K_1.00E+00atm> (1)
-695.111820818974

>  <r_j_Total_Enthalpy_(au)_298.15K_1.00E+00atm> (1)
-695.110876633082

>  <r_j_Total_Free_Energy_(au)_298.15K_1.00E+00atm> (1)
-695.171240158091

>  <r_lp_tautomer_probability> (1)
1

>  <r_epik_Ionization_Penalty> (1)
  0.0000

>  <r_epik_Ionization_Penalty_Charging> (1)
  0.0000

>  <r_epik_Ionization_Penalty_Neutral> (1)
  0.0000

>  <r_epik_State_Penalty> (1)
  0.0000

>  <r_epik_Charging_Adjusted_Penalty> (1)
0

>  <i_epik_Tot_Q> (1)
0

>  <i_epik_Tot_abs_Q> (1)
0

>  <s_lp_Force_Field> (1)
S-OPLS

>  <r_lp_Energy> (1)
6.965343

>  <b_lp_Chiralities_Consistent> (1)
1

$$$$
