25311_Tridecanal
                    3D
 Schrodinger Suite 2021-3.
 40 39  0  0  1  0            999 V2000
   -4.9753    0.5942    2.7426 C   0  0  0  0  0  0
   -4.3136    1.1985    1.5006 C   0  0  0  0  0  0
   -2.8007    0.9541    1.4470 C   0  0  0  0  0  0
   -2.1364    1.5606    0.2041 C   0  0  0  0  0  0
   -0.6078    1.4146    0.1617 C   0  0  0  0  0  0
   -0.1082   -0.0325    0.0542 C   0  0  0  0  0  0
    1.4181   -0.1233   -0.0754 C   0  0  0  0  0  0
    1.9728   -1.5553   -0.1079 C   0  0  0  0  0  0
    1.5385   -2.3746   -1.3304 C   0  0  0  0  0  0
    2.1992   -3.7562   -1.3898 C   0  0  0  0  0  0
    1.7717   -4.5755   -2.6125 C   0  0  0  0  0  0
    2.4471   -5.9593   -2.6666 C   0  0  0  0  0  0
    2.0811   -6.7037   -3.9284 C   0  0  0  0  0  0
    1.5060   -7.7690   -3.9625 O   0  0  0  0  0  0
   -6.0536    0.7835    2.7575 H   0  0  0  0  0  0
   -4.5497    1.0166    3.6603 H   0  0  0  0  0  0
   -4.8265   -0.4911    2.7803 H   0  0  0  0  0  0
   -4.7785    0.7825    0.5962 H   0  0  0  0  0  0
   -4.5062    2.2797    1.4698 H   0  0  0  0  0  0
   -2.3326    1.3741    2.3494 H   0  0  0  0  0  0
   -2.6133   -0.1272    1.4840 H   0  0  0  0  0  0
   -2.5697    1.1033   -0.6972 H   0  0  0  0  0  0
   -2.3919    2.6278    0.1540 H   0  0  0  0  0  0
   -0.2203    1.9841   -0.6941 H   0  0  0  0  0  0
   -0.1735    1.8817    1.0574 H   0  0  0  0  0  0
   -0.4250   -0.6069    0.9349 H   0  0  0  0  0  0
   -0.5886   -0.5097   -0.8105 H   0  0  0  0  0  0
    1.7366    0.4085   -0.9837 H   0  0  0  0  0  0
    1.8757    0.4148    0.7657 H   0  0  0  0  0  0
    3.0702   -1.5115   -0.0849 H   0  0  0  0  0  0
    1.6711   -2.0841    0.8076 H   0  0  0  0  0  0
    0.4480   -2.4991   -1.3308 H   0  0  0  0  0  0
    1.7818   -1.8154   -2.2456 H   0  0  0  0  0  0
    3.2922   -3.6390   -1.3971 H   0  0  0  0  0  0
    1.9597   -4.3165   -0.4754 H   0  0  0  0  0  0
    0.6819   -4.7064   -2.6061 H   0  0  0  0  0  0
    2.0096   -4.0156   -3.5279 H   0  0  0  0  0  0
    3.5389   -5.8246   -2.6563 H   0  0  0  0  0  0
    2.1683   -6.5742   -1.8054 H   0  0  0  0  0  0
    2.3683   -6.1812   -4.8725 H   0  0  0  0  0  0
  1  2  1  0  0  0
  1 15  1  0  0  0
  1 16  1  0  0  0
  1 17  1  0  0  0
  2  3  1  0  0  0
  2 18  1  0  0  0
  2 19  1  0  0  0
  3  4  1  0  0  0
  3 20  1  0  0  0
  3 21  1  0  0  0
  4  5  1  0  0  0
  4 22  1  0  0  0
  4 23  1  0  0  0
  5  6  1  0  0  0
  5 24  1  0  0  0
  5 25  1  0  0  0
  6  7  1  0  0  0
  6 26  1  0  0  0
  6 27  1  0  0  0
  7  8  1  0  0  0
  7 28  1  0  0  0
  7 29  1  0  0  0
  8  9  1  0  0  0
  8 30  1  0  0  0
  8 31  1  0  0  0
  9 10  1  0  0  0
  9 32  1  0  0  0
  9 33  1  0  0  0
 10 11  1  0  0  0
 10 34  1  0  0  0
 10 35  1  0  0  0
 11 12  1  0  0  0
 11 36  1  0  0  0
 11 37  1  0  0  0
 12 13  1  0  0  0
 12 38  1  0  0  0
 12 39  1  0  0  0
 13 14  2  0  0  0
 13 40  1  0  0  0
M  END
>  <i_m_Spin_multiplicity> (1)
1

>  <s_j_Task> (1)
Single Point

>  <s_j_QM_Method> (1)
DFT(b3lyp-d3)

>  <s_j_QM_Basis> (1)
cc-pvtz(-f)

>  <i_j_Number_of_canonical_orbitals> (1)
553

>  <i_j_Geometry_convergence_category> (1)
0

>  <r_j_Gas_Phase_Energy> (1)
-586.513218605299

>  <r_j_Final_Energy> (1)
-586.513218605299

>  <r_j_HOMO> (1)
-0.274213984750647

>  <r_j_LUMO> (1)
-0.0488389818292526

>  <r_j_Polarizability> (1)
162.799082291215

>  <r_j_QM_Dipole_(debye)> (1)
3.13577355206388

>  <r_j_QM_Dipole_X_(debye)> (1)
1.0751409603026

>  <r_j_QM_Dipole_Y_(debye)> (1)
2.83344203486521

>  <r_j_QM_Dipole_Z_(debye)> (1)
0.805452618322046

>  <r_j_Lowest_Frequency_(cm-1)> (1)
31.689441739425

>  <r_j_Highest_Frequency_(cm-1)> (1)
3050.57655201274

>  <r_j_2nd_Lowest_Frequency_(cm-1)> (1)
65.0826316101378

>  <i_j_Num_Negative_Frequencies> (1)
0

>  <r_j_Zero_Point_Energy_(kcal/mol)> (1)
231.762967792442

>  <r_j_Entropy_(cal/mol/K)_298.15K_1.00E+00atm> (1)
129.854735388672

>  <r_j_Enthalpy_(kcal/mol)_298.15K_1.00E+00atm> (1)
11.1270581097711

>  <r_j_Free_Energy_(kcal/mol)_298.15K_1.00E+00atm> (1)
-27.5891312463613

>  <r_j_Internal_Energy_(kcal/mol)_298.15K_1.00E+00atm> (1)
10.5345725209439

>  <r_j_Heat_Capacity_(cal/mol/K)_298.15K_1.00E+00atm> (1)
62.8797393142695

>  <r_j_ln(Q)_298.15K_1.00E+00atm> (1)
46.5650671790504

>  <r_j_Total_Internal_Energy_(au)_298.15K_1.00E+00atm> (1)
-586.127092894219

>  <r_j_Total_Enthalpy_(au)_298.15K_1.00E+00atm> (1)
-586.126148708327

>  <r_j_Total_Free_Energy_(au)_298.15K_1.00E+00atm> (1)
-586.187846883744

>  <r_lp_tautomer_probability> (1)
1

>  <r_epik_Ionization_Penalty> (1)
  0.0000

>  <r_epik_Ionization_Penalty_Charging> (1)
  0.0000

>  <r_epik_Ionization_Penalty_Neutral> (1)
  0.0000

>  <r_epik_State_Penalty> (1)
  0.0000

>  <r_epik_Charging_Adjusted_Penalty> (1)
0

>  <i_epik_Tot_Q> (1)
0

>  <i_epik_Tot_abs_Q> (1)
0

>  <s_lp_Force_Field> (1)
S-OPLS

>  <r_lp_Energy> (1)
6.784421

>  <b_lp_Chiralities_Consistent> (1)
1

$$$$
