25402_3-methyl-cis-2-hexene
                    3D
 Schrodinger Suite 2021-3.
 21 20  0  0  1  0            999 V2000
   -2.0809    1.4499    0.0117 C   0  0  0  0  0  0
   -0.5535    1.4566   -0.0966 C   0  0  0  0  0  0
    0.0540    0.0482    0.0584 C   0  0  0  0  0  0
    1.5680    0.0186   -0.0092 C   0  0  0  0  0  0
    2.2889   -0.2456    1.0913 C   0  0  0  0  0  0
    3.7830   -0.2981    1.2447 C   0  0  0  0  0  0
    2.1590    0.3226   -1.3651 C   0  0  0  0  0  0
   -2.4963    2.4570   -0.0990 H   0  0  0  0  0  0
   -2.4056    1.0596    0.9832 H   0  0  0  0  0  0
   -2.5285    0.8169   -0.7634 H   0  0  0  0  0  0
   -0.2592    1.8847   -1.0627 H   0  0  0  0  0  0
   -0.1261    2.1108    0.6739 H   0  0  0  0  0  0
   -0.2819   -0.3743    1.0137 H   0  0  0  0  0  0
   -0.3620   -0.5982   -0.7297 H   0  0  0  0  0  0
    1.7362   -0.4524    2.0090 H   0  0  0  0  0  0
    4.1240    0.4431    1.9795 H   0  0  0  0  0  0
    4.3205   -0.1080    0.3128 H   0  0  0  0  0  0
    4.1027   -1.2785    1.6210 H   0  0  0  0  0  0
    1.7189   -0.3302   -2.1299 H   0  0  0  0  0  0
    3.2424    0.1942   -1.4001 H   0  0  0  0  0  0
    1.9391    1.3528   -1.6713 H   0  0  0  0  0  0
  1  2  1  0  0  0
  1  8  1  0  0  0
  1  9  1  0  0  0
  1 10  1  0  0  0
  2  3  1  0  0  0
  2 11  1  0  0  0
  2 12  1  0  0  0
  3  4  1  0  0  0
  3 13  1  0  0  0
  3 14  1  0  0  0
  4  5  2  0  0  0
  4  7  1  0  0  0
  5  6  1  0  0  0
  5 15  1  0  0  0
  6 16  1  0  0  0
  6 17  1  0  0  0
  6 18  1  0  0  0
  7 19  1  0  0  0
  7 20  1  0  0  0
  7 21  1  0  0  0
M  END
>  <i_m_Spin_multiplicity> (1)
1

>  <s_j_Task> (1)
Single Point

>  <s_j_QM_Method> (1)
DFT(b3lyp-d3)

>  <s_j_QM_Basis> (1)
cc-pvtz(-f)

>  <i_j_Number_of_canonical_orbitals> (1)
285

>  <i_j_Geometry_convergence_category> (1)
0

>  <r_j_Gas_Phase_Energy> (1)
-275.279551543849

>  <r_j_Final_Energy> (1)
-275.279551543849

>  <r_j_HOMO> (1)
-0.234986253940161

>  <r_j_LUMO> (1)
0.0198228184011784

>  <r_j_Polarizability> (1)
87.7853098843826

>  <r_j_QM_Dipole_(debye)> (1)
0.229273835616398

>  <r_j_QM_Dipole_X_(debye)> (1)
0.0761348915797034

>  <r_j_QM_Dipole_Y_(debye)> (1)
0.128335176804158

>  <r_j_QM_Dipole_Z_(debye)> (1)
-0.174069102304365

>  <r_j_Lowest_Frequency_(cm-1)> (1)
97.3453721168979

>  <r_j_Highest_Frequency_(cm-1)> (1)
3082.08240254592

>  <r_j_2nd_Lowest_Frequency_(cm-1)> (1)
132.03228733432

>  <i_j_Num_Negative_Frequencies> (1)
0

>  <r_j_Zero_Point_Energy_(kcal/mol)> (1)
120.944403787736

>  <r_j_Entropy_(cal/mol/K)_298.15K_1.00E+00atm> (1)
89.6642139675173

>  <r_j_Enthalpy_(kcal/mol)_298.15K_1.00E+00atm> (1)
6.15341798843838

>  <r_j_Free_Energy_(kcal/mol)_298.15K_1.00E+00atm> (1)
-20.5799674059769

>  <r_j_Internal_Energy_(kcal/mol)_298.15K_1.00E+00atm> (1)
5.5609323996111

>  <r_j_Heat_Capacity_(cal/mol/K)_298.15K_1.00E+00atm> (1)
32.7428584538589

>  <r_j_ln(Q)_298.15K_1.00E+00atm> (1)
34.7349670507793

>  <r_j_Total_Internal_Energy_(au)_298.15K_1.00E+00atm> (1)
-275.077952456927

>  <r_j_Total_Enthalpy_(au)_298.15K_1.00E+00atm> (1)
-275.077008271034

>  <r_j_Total_Free_Energy_(au)_298.15K_1.00E+00atm> (1)
-275.119610632708

>  <r_lp_tautomer_probability> (1)
1

>  <r_epik_Ionization_Penalty> (1)
  0.0000

>  <r_epik_Ionization_Penalty_Charging> (1)
  0.0000

>  <r_epik_Ionization_Penalty_Neutral> (1)
  0.0000

>  <r_epik_State_Penalty> (1)
  0.0000

>  <r_epik_Charging_Adjusted_Penalty> (1)
0

>  <i_epik_Tot_Q> (1)
0

>  <i_epik_Tot_abs_Q> (1)
0

>  <s_lp_Force_Field> (1)
S-OPLS

>  <r_lp_Energy> (1)
-2.40375

>  <b_lp_Chiralities_Consistent> (1)
1

$$$$
