25477_Chrysotile
                    3D
 Schrodinger Suite 2021-3.
 14  8  0  0  1  0            999 V2000
    0.2133    5.0477    0.0000 O   0  0  2  0  0  0
    1.1506    1.7950    0.0000 O   0  0  1  0  0  0
    0.0230    1.1481    0.0000 Si  0  0  0  0  0  0
    1.1470    0.4950    0.0000 O   0  5  0  0  0  0
   -0.6239    2.2758    0.0000 O   0  5  0  0  0  0
   -0.6302    0.0241    0.0000 O   0  5  0  0  0  0
    1.1037   -2.1074    0.0000 O   0  0  1  0  0  0
   -0.0240   -2.7543    0.0000 Si  0  0  0  0  0  0
    1.1000   -3.4074    0.0000 O   0  5  0  0  0  0
   -0.6709   -1.6266    0.0000 O   0  5  0  0  0  0
   -0.6771   -3.8783    0.0000 O   0  5  0  0  0  0
    1.1470   -0.8050    0.0000 Mg  0  2  0  0  0  0
   -0.6239    3.5758    0.0000 Mg  0  2  0  0  0  0
   -1.9302    0.0241    0.0000 Mg  0  2  0  0  0  0
  2  3  1  0  0  0
  3  4  1  0  0  0
  3  5  1  0  0  0
  3  6  1  0  0  0
  7  8  1  0  0  0
  8  9  1  0  0  0
  8 10  1  0  0  0
  8 11  1  0  0  0
M  END
>  <i_m_Spin_multiplicity> (1)
1

>  <s_j_Task> (1)
Single Point

>  <s_j_QM_Method> (1)
DFT(b3lyp-d3)

>  <s_j_QM_Basis> (1)
cc-pvtz(-f)

>  <i_j_Number_of_canonical_orbitals> (1)
337

>  <r_j_Gas_Phase_Energy> (1)
-1853.96570622241

>  <r_j_Final_Energy> (1)
-1853.96570622241

>  <r_j_Polarizability> (1)
270.45708480243

>  <r_j_QM_Dipole_(debye)> (1)
2.7216565972889

>  <r_j_QM_Dipole_X_(debye)> (1)
-0.500828095352989

>  <r_j_QM_Dipole_Y_(debye)> (1)
-2.67517959256408

>  <r_j_QM_Dipole_Z_(debye)> (1)
0

>  <r_j_Zero_Point_Energy_(kcal/mol)> (1)
42.4425366913942

>  <r_j_Entropy_(cal/mol/K)_298.15K_1.00E+00atm> (1)
77.0833865321361

>  <r_j_Enthalpy_(kcal/mol)_298.15K_1.00E+00atm> (1)
2.89778283545958

>  <r_j_Free_Energy_(kcal/mol)_298.15K_1.00E+00atm> (1)
-20.0846288590968

>  <r_j_Internal_Energy_(kcal/mol)_298.15K_1.00E+00atm> (1)
2.3052972466323

>  <r_j_Heat_Capacity_(cal/mol/K)_298.15K_1.00E+00atm> (1)
11.0218097649549

>  <r_j_ln(Q)_298.15K_1.00E+00atm> (1)
33.8989322910806

>  <r_j_Total_Internal_Energy_(au)_298.15K_1.00E+00atm> (1)
-1853.89439600945

>  <r_j_Total_Enthalpy_(au)_298.15K_1.00E+00atm> (1)
-1853.89345182356

>  <r_j_Total_Free_Energy_(au)_298.15K_1.00E+00atm> (1)
-1853.93007662812

>  <r_j_HOMO> (1)
-0.178365876682151

>  <r_j_LUMO> (1)
-0.159444251704122

>  <r_j_Lowest_Frequency_(cm-1)> (1)
-1204.22076296552

>  <r_j_Highest_Frequency_(cm-1)> (1)
2936.70985509013

>  <r_j_2nd_Lowest_Frequency_(cm-1)> (1)
-1137.38242893148

>  <i_j_Num_Negative_Frequencies> (1)
19

$$$$
