25982_Di(propylene glycol) methyl ether
                    3D
 Schrodinger Suite 2021-3.
 26 25  0  0  1  0            999 V2000
   -2.4078    1.2481    1.3457 C   0  0  0  0  0  0
   -1.8928    1.3590    0.0319 O   0  0  0  0  0  0
   -0.4692    1.3587   -0.0503 C   0  0  0  0  0  0
   -0.0776    2.1470   -1.2915 C   0  0  0  0  0  0
    0.0360   -0.0864   -0.1081 C   0  0  0  0  0  0
    1.4539   -0.0608   -0.0979 O   0  0  0  0  0  0
    2.0599   -1.3451   -0.1651 C   0  0  0  0  0  0
    3.5598   -1.1348    0.0184 C   0  0  0  0  0  0
    4.3263   -2.4491    0.0295 C   0  0  0  0  0  0
    3.8040   -0.4809    1.2582 O   0  0  0  0  0  0
   -3.4975    1.2642    1.2633 H   0  0  0  0  0  0
   -2.0883    2.0899    1.9799 H   0  0  0  0  0  0
   -2.1119    0.3129    1.8442 H   0  0  0  0  0  0
   -0.0345    1.8365    0.8431 H   0  0  0  0  0  0
    1.0054    2.1126   -1.4322 H   0  0  0  0  0  0
   -0.4002    3.1875   -1.2009 H   0  0  0  0  0  0
   -0.5612    1.7123   -2.1725 H   0  0  0  0  0  0
   -0.3450   -0.6624    0.7501 H   0  0  0  0  0  0
   -0.3437   -0.5648   -1.0250 H   0  0  0  0  0  0
    1.6789   -1.9920    0.6421 H   0  0  0  0  0  0
    1.8424   -1.8302   -1.1303 H   0  0  0  0  0  0
    3.9117   -0.5089   -0.8201 H   0  0  0  0  0  0
    4.2092   -2.9819   -0.9197 H   0  0  0  0  0  0
    3.9693   -3.0889    0.8428 H   0  0  0  0  0  0
    5.3896   -2.2558    0.1919 H   0  0  0  0  0  0
    3.1761    0.2559    1.2934 H   0  0  0  0  0  0
  1  2  1  0  0  0
  1 11  1  0  0  0
  1 12  1  0  0  0
  1 13  1  0  0  0
  2  3  1  0  0  0
  3  4  1  0  0  0
  3  5  1  0  0  0
  3 14  1  0  0  0
  4 15  1  0  0  0
  4 16  1  0  0  0
  4 17  1  0  0  0
  5  6  1  0  0  0
  5 18  1  0  0  0
  5 19  1  0  0  0
  6  7  1  0  0  0
  7  8  1  0  0  0
  7 20  1  0  0  0
  7 21  1  0  0  0
  8  9  1  0  0  0
  8 10  1  0  0  0
  8 22  1  0  0  0
  9 23  1  0  0  0
  9 24  1  0  0  0
  9 25  1  0  0  0
 10 26  1  0  0  0
M  END
>  <i_m_Spin_multiplicity> (1)
1

>  <s_j_Task> (1)
Single Point

>  <s_j_QM_Method> (1)
DFT(b3lyp-d3)

>  <s_j_QM_Basis> (1)
cc-pvtz(-f)

>  <i_j_Number_of_canonical_orbitals> (1)
374

>  <i_j_Geometry_convergence_category> (1)
3

>  <r_j_Gas_Phase_Energy> (1)
-502.228277801667

>  <r_j_Final_Energy> (1)
-502.228277801667

>  <r_j_HOMO> (1)
-0.260956798994389

>  <r_j_LUMO> (1)
0.0238401428902692

>  <r_j_Polarizability> (1)
100.735797677554

>  <r_j_QM_Dipole_(debye)> (1)
1.25891073474229

>  <r_j_QM_Dipole_X_(debye)> (1)
-1.09794942045099

>  <r_j_QM_Dipole_Y_(debye)> (1)
-0.593809286998703

>  <r_j_QM_Dipole_Z_(debye)> (1)
-0.163566007638501

>  <r_j_Lowest_Frequency_(cm-1)> (1)
54.8396860264214

>  <r_j_Highest_Frequency_(cm-1)> (1)
3727.52502385202

>  <r_j_2nd_Lowest_Frequency_(cm-1)> (1)
65.9037654558027

>  <i_j_Num_Negative_Frequencies> (1)
0

>  <r_j_Zero_Point_Energy_(kcal/mol)> (1)
144.634384343151

>  <r_j_Entropy_(cal/mol/K)_298.15K_1.00E+00atm> (1)
105.933860005824

>  <r_j_Enthalpy_(kcal/mol)_298.15K_1.00E+00atm> (1)
8.13575510755613

>  <r_j_Free_Energy_(kcal/mol)_298.15K_1.00E+00atm> (1)
-23.4484252531804

>  <r_j_Internal_Energy_(kcal/mol)_298.15K_1.00E+00atm> (1)
7.54326951872885

>  <r_j_Heat_Capacity_(cal/mol/K)_298.15K_1.00E+00atm> (1)
44.3966325117782

>  <r_j_ln(Q)_298.15K_1.00E+00atm> (1)
39.5763638734111

>  <r_j_Total_Internal_Energy_(au)_298.15K_1.00E+00atm> (1)
-501.985767272126

>  <r_j_Total_Enthalpy_(au)_298.15K_1.00E+00atm> (1)
-501.984823086234

>  <r_j_Total_Free_Energy_(au)_298.15K_1.00E+00atm> (1)
-502.035155681789

>  <r_lp_tautomer_probability> (1)
1

>  <r_epik_Ionization_Penalty> (1)
  0.0000

>  <r_epik_Ionization_Penalty_Charging> (1)
  0.0000

>  <r_epik_Ionization_Penalty_Neutral> (1)
  0.0000

>  <r_epik_State_Penalty> (1)
  0.0000

>  <r_epik_Charging_Adjusted_Penalty> (1)
0

>  <i_epik_Tot_Q> (1)
0

>  <i_epik_Tot_abs_Q> (1)
0

>  <s_lp_Force_Field> (1)
S-OPLS

>  <r_lp_Energy> (1)
2.345152

>  <b_lp_Chiralities_Consistent> (1)
1

$$$$
