26058_2,2,4,6,6-pentamethylheptane
                    3D
 Schrodinger Suite 2021-3.
 38 37  0  0  1  0            999 V2000
   -0.2261   -0.7164    1.4720 C   0  0  0  0  0  0
    0.0441    0.0092    0.1424 C   0  0  0  0  0  0
    1.5747    0.2238    0.0219 C   0  0  0  0  0  0
    2.2082    0.7816   -1.2890 C   0  0  0  0  0  0
    1.5297    0.1868   -2.5365 C   0  0  0  0  0  0
    3.6933    0.3584   -1.2893 C   0  0  0  0  0  0
    2.1713    2.3231   -1.3520 C   0  0  0  0  0  0
   -0.7496    1.3231   -0.0197 C   0  0  0  0  0  0
   -2.3062    1.3168    0.0308 C   0  0  0  0  0  0
   -2.7833    2.6346   -0.6182 C   0  0  0  0  0  0
   -2.8525    1.2892    1.4728 C   0  0  0  0  0  0
   -2.8802    0.1374   -0.7746 C   0  0  0  0  0  0
   -0.0581   -0.0490    2.3258 H   0  0  0  0  0  0
    0.4418   -1.5772    1.5879 H   0  0  0  0  0  0
   -1.2499   -1.0905    1.5368 H   0  0  0  0  0  0
   -0.2572   -0.6683   -0.6671 H   0  0  0  0  0  0
    1.9070    0.8537    0.8605 H   0  0  0  0  0  0
    2.0297   -0.7602    0.1970 H   0  0  0  0  0  0
    2.0546    0.4999   -3.4462 H   0  0  0  0  0  0
    0.4878    0.5085   -2.6302 H   0  0  0  0  0  0
    1.5398   -0.9088   -2.5058 H   0  0  0  0  0  0
    3.7952   -0.7323   -1.3181 H   0  0  0  0  0  0
    4.2049    0.7191   -0.3894 H   0  0  0  0  0  0
    4.2190    0.7679   -2.1594 H   0  0  0  0  0  0
    2.7086    2.6806   -2.2379 H   0  0  0  0  0  0
    2.6563    2.7585   -0.4709 H   0  0  0  0  0  0
    1.1564    2.7215   -1.4018 H   0  0  0  0  0  0
   -0.3807    2.0518    0.7171 H   0  0  0  0  0  0
   -0.4851    1.7313   -0.9992 H   0  0  0  0  0  0
   -3.8746    2.7234   -0.5722 H   0  0  0  0  0  0
   -2.4866    2.6885   -1.6719 H   0  0  0  0  0  0
   -2.3551    3.5035   -0.1047 H   0  0  0  0  0  0
   -2.4490    2.1243    2.0569 H   0  0  0  0  0  0
   -2.6083    0.3662    2.0005 H   0  0  0  0  0  0
   -3.9444    1.3853    1.4672 H   0  0  0  0  0  0
   -3.9724    0.2045   -0.8328 H   0  0  0  0  0  0
   -2.6323   -0.8270   -0.3212 H   0  0  0  0  0  0
   -2.4911    0.1349   -1.7996 H   0  0  0  0  0  0
  1  2  1  0  0  0
  1 13  1  0  0  0
  1 14  1  0  0  0
  1 15  1  0  0  0
  2  3  1  0  0  0
  2  8  1  0  0  0
  2 16  1  0  0  0
  3  4  1  0  0  0
  3 17  1  0  0  0
  3 18  1  0  0  0
  4  5  1  0  0  0
  4  6  1  0  0  0
  4  7  1  0  0  0
  5 19  1  0  0  0
  5 20  1  0  0  0
  5 21  1  0  0  0
  6 22  1  0  0  0
  6 23  1  0  0  0
  6 24  1  0  0  0
  7 25  1  0  0  0
  7 26  1  0  0  0
  7 27  1  0  0  0
  8  9  1  0  0  0
  8 28  1  0  0  0
  8 29  1  0  0  0
  9 10  1  0  0  0
  9 11  1  0  0  0
  9 12  1  0  0  0
 10 30  1  0  0  0
 10 31  1  0  0  0
 10 32  1  0  0  0
 11 33  1  0  0  0
 11 34  1  0  0  0
 11 35  1  0  0  0
 12 36  1  0  0  0
 12 37  1  0  0  0
 12 38  1  0  0  0
M  END
>  <i_m_Spin_multiplicity> (1)
1

>  <s_j_Task> (1)
Single Point

>  <s_j_QM_Method> (1)
DFT(b3lyp-d3)

>  <s_j_QM_Basis> (1)
cc-pvtz(-f)

>  <i_j_Number_of_canonical_orbitals> (1)
506

>  <i_j_Geometry_convergence_category> (1)
3

>  <r_j_Gas_Phase_Energy> (1)
-473.153959566298

>  <r_j_Final_Energy> (1)
-473.153959566298

>  <r_j_HOMO> (1)
-0.285796438357572

>  <r_j_LUMO> (1)
0.0272401172843046

>  <r_j_Polarizability> (1)
145.998949707331

>  <r_j_QM_Dipole_(debye)> (1)
0.109445474148695

>  <r_j_QM_Dipole_X_(debye)> (1)
-0.00344901010176679

>  <r_j_QM_Dipole_Y_(debye)> (1)
-0.0953011347394625

>  <r_j_QM_Dipole_Z_(debye)> (1)
-0.0537039091530725

>  <r_j_Lowest_Frequency_(cm-1)> (1)
73.2701438807899

>  <r_j_Highest_Frequency_(cm-1)> (1)
3089.84229386478

>  <r_j_2nd_Lowest_Frequency_(cm-1)> (1)
79.5604131877386

>  <i_j_Num_Negative_Frequencies> (1)
0

>  <r_j_Zero_Point_Energy_(kcal/mol)> (1)
224.564712709918

>  <r_j_Entropy_(cal/mol/K)_298.15K_1.00E+00atm> (1)
114.594530339767

>  <r_j_Enthalpy_(kcal/mol)_298.15K_1.00E+00atm> (1)
9.84125840899762

>  <r_j_Free_Energy_(kcal/mol)_298.15K_1.00E+00atm> (1)
-24.3251008118039

>  <r_j_Internal_Energy_(kcal/mol)_298.15K_1.00E+00atm> (1)
9.24877282017035

>  <r_j_Heat_Capacity_(cal/mol/K)_298.15K_1.00E+00atm> (1)
60.2253187494167

>  <r_j_ln(Q)_298.15K_1.00E+00atm> (1)
41.0560210585903

>  <r_j_Total_Internal_Energy_(au)_298.15K_1.00E+00atm> (1)
-472.781354057205

>  <r_j_Total_Enthalpy_(au)_298.15K_1.00E+00atm> (1)
-472.780409871313

>  <r_j_Total_Free_Energy_(au)_298.15K_1.00E+00atm> (1)
-472.834857430838

>  <r_lp_tautomer_probability> (1)
1

>  <r_epik_Ionization_Penalty> (1)
  0.0000

>  <r_epik_Ionization_Penalty_Charging> (1)
  0.0000

>  <r_epik_Ionization_Penalty_Neutral> (1)
  0.0000

>  <r_epik_State_Penalty> (1)
  0.0000

>  <r_epik_Charging_Adjusted_Penalty> (1)
0

>  <i_epik_Tot_Q> (1)
0

>  <i_epik_Tot_abs_Q> (1)
0

>  <s_lp_Force_Field> (1)
S-OPLS

>  <r_lp_Energy> (1)
16.2156

>  <b_lp_Chiralities_Consistent> (1)
1

$$$$
