260716_Bicyclo[3.2.1]octane
                    3D
 Schrodinger Suite 2021-3.
 22 23  0  0  1  0            999 V2000
    1.0538   -3.0469    1.5310 C   0  0  0  0  0  0
   -0.4234   -3.4851    1.4810 C   0  0  0  0  0  0
   -1.1061   -3.3531    2.8597 C   0  0  0  0  0  0
   -0.9048   -1.9427    3.4744 C   0  0  0  0  0  0
    0.4472   -2.0235    4.2542 C   0  0  0  0  0  0
    0.9515   -3.4762    4.0468 C   0  0  0  0  0  0
    1.7910   -3.6178    2.7587 C   0  0  0  0  0  0
   -0.3696   -4.2512    3.8732 C   0  0  0  0  0  0
    1.0982   -1.9513    1.5677 H   0  0  0  0  0  0
    1.5690   -3.3371    0.6080 H   0  0  0  0  0  0
   -0.9606   -2.8883    0.7333 H   0  0  0  0  0  0
   -0.4908   -4.5320    1.1552 H   0  0  0  0  0  0
   -2.1679   -3.6075    2.7675 H   0  0  0  0  0  0
   -0.9005   -1.1601    2.7081 H   0  0  0  0  0  0
   -1.7276   -1.7113    4.1588 H   0  0  0  0  0  0
    1.1766   -1.2843    3.9061 H   0  0  0  0  0  0
    0.2858   -1.8315    5.3201 H   0  0  0  0  0  0
    1.5357   -3.8291    4.9041 H   0  0  0  0  0  0
    2.0119   -4.6819    2.5992 H   0  0  0  0  0  0
    2.7569   -3.1111    2.8781 H   0  0  0  0  0  0
   -0.9196   -4.3017    4.8215 H   0  0  0  0  0  0
   -0.2242   -5.2770    3.5148 H   0  0  0  0  0  0
  1  7  1  0  0  0
  1  2  1  0  0  0
  1  9  1  0  0  0
  1 10  1  0  0  0
  2  3  1  0  0  0
  2 11  1  0  0  0
  2 12  1  0  0  0
  3  8  1  0  0  0
  3  4  1  0  0  0
  3 13  1  0  0  0
  4  5  1  0  0  0
  4 14  1  0  0  0
  4 15  1  0  0  0
  5  6  1  0  0  0
  5 16  1  0  0  0
  5 17  1  0  0  0
  6  7  1  0  0  0
  6  8  1  0  0  0
  6 18  1  0  0  0
  7 19  1  0  0  0
  7 20  1  0  0  0
  8 21  1  0  0  0
  8 22  1  0  0  0
M  END
>  <i_m_Spin_multiplicity> (1)
1

>  <s_j_Task> (1)
Single Point

>  <s_j_QM_Method> (1)
DFT(b3lyp-d3)

>  <s_j_QM_Basis> (1)
cc-pvtz(-f)

>  <i_j_Number_of_canonical_orbitals> (1)
307

>  <i_j_Geometry_convergence_category> (1)
0

>  <r_j_Gas_Phase_Energy> (1)
-313.41037441953

>  <r_j_Final_Energy> (1)
-313.41037441953

>  <r_j_HOMO> (1)
-0.328687930186152

>  <r_j_LUMO> (1)
-0.0123068730417613

>  <r_j_Polarizability> (1)
87.0485538681634

>  <r_j_QM_Dipole_(debye)> (1)
0.0361985745223387

>  <r_j_QM_Dipole_X_(debye)> (1)
-0.0141580129569849

>  <r_j_QM_Dipole_Y_(debye)> (1)
-0.0252278544998063

>  <r_j_QM_Dipole_Z_(debye)> (1)
0.0217587413214955

>  <r_j_Lowest_Frequency_(cm-1)> (1)
221.810009629269

>  <r_j_Highest_Frequency_(cm-1)> (1)
3042.15170531792

>  <r_j_2nd_Lowest_Frequency_(cm-1)> (1)
288.621082238582

>  <i_j_Num_Negative_Frequencies> (1)
0

>  <r_j_Zero_Point_Energy_(kcal/mol)> (1)
128.991498572549

>  <r_j_Entropy_(cal/mol/K)_298.15K_1.00E+00atm> (1)
78.3306130271632

>  <r_j_Enthalpy_(kcal/mol)_298.15K_1.00E+00atm> (1)
4.57561625434962

>  <r_j_Free_Energy_(kcal/mol)_298.15K_1.00E+00atm> (1)
-18.7786560196991

>  <r_j_Internal_Energy_(kcal/mol)_298.15K_1.00E+00atm> (1)
3.98313066552234

>  <r_j_Heat_Capacity_(cal/mol/K)_298.15K_1.00E+00atm> (1)
27.662507430556

>  <r_j_ln(Q)_298.15K_1.00E+00atm> (1)
31.6947051098209

>  <r_j_Total_Internal_Energy_(au)_298.15K_1.00E+00atm> (1)
-313.198465857834

>  <r_j_Total_Enthalpy_(au)_298.15K_1.00E+00atm> (1)
-313.197521671942

>  <r_j_Total_Free_Energy_(au)_298.15K_1.00E+00atm> (1)
-313.234739074054

>  <r_lp_tautomer_probability> (1)
1

>  <r_epik_Ionization_Penalty> (1)
  0.0000

>  <r_epik_Ionization_Penalty_Charging> (1)
  0.0000

>  <r_epik_Ionization_Penalty_Neutral> (1)
  0.0000

>  <r_epik_State_Penalty> (1)
  0.0000

>  <r_epik_Charging_Adjusted_Penalty> (1)
0

>  <i_epik_Tot_Q> (1)
0

>  <i_epik_Tot_abs_Q> (1)
0

>  <s_lp_Force_Field> (1)
S-OPLS

>  <r_lp_Energy> (1)
23.3413

>  <b_lp_Chiralities_Consistent> (1)
1

$$$$
