262_2,3-Butanediol
                    3D
 Schrodinger Suite 2021-3.
 16 15  0  0  1  0            999 V2000
   -0.4887   -0.7569    1.3070 C   0  0  0  0  0  0
   -0.0192   -0.0529    0.0404 C   0  0  0  0  0  0
    1.5192    0.0528   -0.0404 C   0  0  0  0  0  0
    1.9888    0.7570   -1.3069 C   0  0  0  0  0  0
    2.1159   -1.2461   -0.0604 O   0  0  0  0  0  0
   -0.6159    1.2460    0.0603 O   0  0  0  0  0  0
   -0.1292   -1.7895    1.3395 H   0  0  0  0  0  0
   -1.5807   -0.7746    1.3411 H   0  0  0  0  0  0
   -0.1304   -0.2218    2.1936 H   0  0  0  0  0  0
   -0.3564   -0.6286   -0.8378 H   0  0  0  0  0  0
    1.8563    0.6284    0.8379 H   0  0  0  0  0  0
    1.6293    1.7896   -1.3393 H   0  0  0  0  0  0
    1.6305    0.2220   -2.1936 H   0  0  0  0  0  0
    3.0807    0.7747   -1.3409 H   0  0  0  0  0  0
    2.0294   -1.6290    0.8211 H   0  0  0  0  0  0
   -0.5293    1.6289   -0.8213 H   0  0  0  0  0  0
  1  2  1  0  0  0
  1  7  1  0  0  0
  1  8  1  0  0  0
  1  9  1  0  0  0
  2  3  1  0  0  0
  2  6  1  0  0  0
  2 10  1  0  0  0
  3  4  1  0  0  0
  3  5  1  0  0  0
  3 11  1  0  0  0
  4 12  1  0  0  0
  4 13  1  0  0  0
  4 14  1  0  0  0
  5 15  1  0  0  0
  6 16  1  0  0  0
M  END
>  <i_m_Spin_multiplicity> (1)
1

>  <s_j_Task> (1)
Single Point

>  <s_j_QM_Method> (1)
DFT(b3lyp-d3)

>  <s_j_QM_Basis> (1)
cc-pvtz(-f)

>  <i_j_Number_of_canonical_orbitals> (1)
228

>  <i_j_Geometry_convergence_category> (1)
3

>  <r_j_Gas_Phase_Energy> (1)
-309.016629937422

>  <r_j_Final_Energy> (1)
-309.016629937422

>  <r_j_HOMO> (1)
-0.262515195540515

>  <r_j_LUMO> (1)
0.0157399992283694

>  <r_j_Polarizability> (1)
58.3454617101477

>  <r_j_QM_Dipole_(debye)> (1)
0.000209483658408631

>  <r_j_QM_Dipole_X_(debye)> (1)
0.000195097169526257

>  <r_j_QM_Dipole_Y_(debye)> (1)
2.57945473626112e-05

>  <r_j_QM_Dipole_Z_(debye)> (1)
7.1799296023466e-05

>  <r_j_Lowest_Frequency_(cm-1)> (1)
100.412720043403

>  <r_j_Highest_Frequency_(cm-1)> (1)
3780.27052108987

>  <r_j_2nd_Lowest_Frequency_(cm-1)> (1)
243.729641278607

>  <i_j_Num_Negative_Frequencies> (1)
0

>  <r_j_Zero_Point_Energy_(kcal/mol)> (1)
88.4605750240024

>  <r_j_Entropy_(cal/mol/K)_298.15K_1.00E+00atm> (1)
81.6789637961941

>  <r_j_Enthalpy_(kcal/mol)_298.15K_1.00E+00atm> (1)
5.20118785426486

>  <r_j_Free_Energy_(kcal/mol)_298.15K_1.00E+00atm> (1)
-19.1513952015704

>  <r_j_Internal_Energy_(kcal/mol)_298.15K_1.00E+00atm> (1)
4.60870226543758

>  <r_j_Heat_Capacity_(cal/mol/K)_298.15K_1.00E+00atm> (1)
27.4174620165684

>  <r_j_ln(Q)_298.15K_1.00E+00atm> (1)
32.3238160770752

>  <r_j_Total_Internal_Energy_(au)_298.15K_1.00E+00atm> (1)
-308.868314602373

>  <r_j_Total_Enthalpy_(au)_298.15K_1.00E+00atm> (1)
-308.867370416481

>  <r_j_Total_Free_Energy_(au)_298.15K_1.00E+00atm> (1)
-308.9061787281

>  <r_lp_tautomer_probability> (1)
1

>  <r_epik_Ionization_Penalty> (1)
  0.0000

>  <r_epik_Ionization_Penalty_Charging> (1)
  0.0000

>  <r_epik_Ionization_Penalty_Neutral> (1)
  0.0000

>  <r_epik_State_Penalty> (1)
  0.0000

>  <r_epik_Charging_Adjusted_Penalty> (1)
0

>  <i_epik_Tot_Q> (1)
0

>  <i_epik_Tot_abs_Q> (1)
0

>  <s_lp_Force_Field> (1)
S-OPLS

>  <r_lp_Energy> (1)
0.637237

>  <b_lp_Chiralities_Consistent> (1)
1

$$$$
