26318_Caryophyllene
                    3D
 Schrodinger Suite 2021-3.
 39 40  0  0  1  0            999 V2000
   -0.1462    0.1496   -0.0255 C   0  0  0  0  0  0
    1.3543    0.0166   -0.0741 C   0  0  0  0  0  0
    2.0210   -1.1442   -0.0100 C   0  0  0  0  0  0
    1.4377   -2.5184   -0.1729 C   0  0  0  0  0  0
    1.6042   -2.9701   -1.6560 C   0  0  0  0  0  0
    1.1871   -1.8936   -2.6507 C   0  0  0  0  0  0
   -0.0828   -1.8090   -3.0638 C   0  0  0  0  0  0
    2.2531   -0.9295   -3.1401 C   0  0  0  0  0  0
    2.3301   -0.5936   -4.6576 C   0  0  0  0  0  0
    2.7550    0.8606   -4.3070 C   0  0  0  0  0  0
    2.1871    0.6177   -2.8637 C   0  0  0  0  0  0
    2.9246    1.2367   -1.6688 C   0  0  0  0  0  0
    2.1075    1.3092   -0.3571 C   0  0  0  0  0  0
    4.2801    1.0229   -4.3482 C   0  0  0  0  0  0
    2.0808    1.9792   -5.0968 C   0  0  0  0  0  0
   -0.4339    0.9130    0.7091 H   0  0  0  0  0  0
   -0.6565   -0.7788    0.2346 H   0  0  0  0  0  0
   -0.5337    0.4794   -0.9975 H   0  0  0  0  0  0
    3.1103   -1.1038   -0.0657 H   0  0  0  0  0  0
    1.9278   -3.2511    0.4809 H   0  0  0  0  0  0
    0.3726   -2.5306    0.0747 H   0  0  0  0  0  0
    2.6546   -3.2367   -1.8293 H   0  0  0  0  0  0
    1.0178   -3.8824   -1.8158 H   0  0  0  0  0  0
   -0.8414   -2.5052   -2.7169 H   0  0  0  0  0  0
   -0.4170   -1.0377   -3.7523 H   0  0  0  0  0  0
    3.2316   -1.2882   -2.8014 H   0  0  0  0  0  0
    3.0213   -1.1883   -5.2639 H   0  0  0  0  0  0
    1.3427   -0.6262   -5.1279 H   0  0  0  0  0  0
    1.1332    0.9259   -2.8519 H   0  0  0  0  0  0
    3.8497    0.6739   -1.4950 H   0  0  0  0  0  0
    3.2404    2.2551   -1.9343 H   0  0  0  0  0  0
    1.3876    2.1329   -0.4341 H   0  0  0  0  0  0
    2.7784    1.5695    0.4721 H   0  0  0  0  0  0
    4.5954    1.9821   -3.9238 H   0  0  0  0  0  0
    4.6324    0.9853   -5.3852 H   0  0  0  0  0  0
    4.7944    0.2292   -3.7965 H   0  0  0  0  0  0
    2.3057    2.9595   -4.6587 H   0  0  0  0  0  0
    0.9920    1.8569   -5.1049 H   0  0  0  0  0  0
    2.4256    1.9942   -6.1379 H   0  0  0  0  0  0
  1  2  1  0  0  0
  1 16  1  0  0  0
  1 17  1  0  0  0
  1 18  1  0  0  0
  2 13  1  0  0  0
  2  3  2  0  0  0
  3  4  1  0  0  0
  3 19  1  0  0  0
  4  5  1  0  0  0
  4 20  1  0  0  0
  4 21  1  0  0  0
  5  6  1  0  0  0
  5 22  1  0  0  0
  5 23  1  0  0  0
  6  7  2  0  0  0
  6  8  1  0  0  0
  7 24  1  0  0  0
  7 25  1  0  0  0
  8 11  1  0  0  0
  8  9  1  0  0  0
  8 26  1  0  0  0
  9 10  1  0  0  0
  9 27  1  0  0  0
  9 28  1  0  0  0
 10 11  1  0  0  0
 10 14  1  0  0  0
 10 15  1  0  0  0
 11 12  1  0  0  0
 11 29  1  0  0  0
 12 13  1  0  0  0
 12 30  1  0  0  0
 12 31  1  0  0  0
 13 32  1  0  0  0
 13 33  1  0  0  0
 14 34  1  0  0  0
 14 35  1  0  0  0
 14 36  1  0  0  0
 15 37  1  0  0  0
 15 38  1  0  0  0
 15 39  1  0  0  0
M  END
>  <i_m_Spin_multiplicity> (1)
1

>  <s_j_Task> (1)
Single Point

>  <s_j_QM_Method> (1)
DFT(b3lyp-d3)

>  <s_j_QM_Basis> (1)
cc-pvtz(-f)

>  <i_j_Number_of_canonical_orbitals> (1)
552

>  <i_j_Geometry_convergence_category> (1)
3

>  <r_j_Gas_Phase_Energy> (1)
-586.222079795029

>  <r_j_Final_Energy> (1)
-586.222079795029

>  <r_j_HOMO> (1)
-0.224339396508784

>  <r_j_LUMO> (1)
0.00749460705598812

>  <r_j_Polarizability> (1)
167.80262138283

>  <r_j_QM_Dipole_(debye)> (1)
0.339556249828248

>  <r_j_QM_Dipole_X_(debye)> (1)
0.216668402684844

>  <r_j_QM_Dipole_Y_(debye)> (1)
0.258162045546122

>  <r_j_QM_Dipole_Z_(debye)> (1)
-0.0412990110639974

>  <r_j_Lowest_Frequency_(cm-1)> (1)
81.2940779147987

>  <r_j_Highest_Frequency_(cm-1)> (1)
3162.39268296022

>  <r_j_2nd_Lowest_Frequency_(cm-1)> (1)
97.2909995192195

>  <i_j_Num_Negative_Frequencies> (1)
0

>  <r_j_Zero_Point_Energy_(kcal/mol)> (1)
222.263397046275

>  <r_j_Entropy_(cal/mol/K)_298.15K_1.00E+00atm> (1)
115.983591323337

>  <r_j_Enthalpy_(kcal/mol)_298.15K_1.00E+00atm> (1)
9.85762929728127

>  <r_j_Free_Energy_(kcal/mol)_298.15K_1.00E+00atm> (1)
-24.7228784557716

>  <r_j_Internal_Energy_(kcal/mol)_298.15K_1.00E+00atm> (1)
9.26514370845399

>  <r_j_Heat_Capacity_(cal/mol/K)_298.15K_1.00E+00atm> (1)
61.8222596752316

>  <r_j_ln(Q)_298.15K_1.00E+00atm> (1)
41.7273920614784

>  <r_j_Total_Internal_Energy_(au)_298.15K_1.00E+00atm> (1)
-585.853115577239

>  <r_j_Total_Enthalpy_(au)_298.15K_1.00E+00atm> (1)
-585.852171391346

>  <r_j_Total_Free_Energy_(au)_298.15K_1.00E+00atm> (1)
-585.907278938573

>  <r_lp_tautomer_probability> (1)
1

>  <r_epik_Ionization_Penalty> (1)
  0.0000

>  <r_epik_Ionization_Penalty_Charging> (1)
  0.0000

>  <r_epik_Ionization_Penalty_Neutral> (1)
  0.0000

>  <r_epik_State_Penalty> (1)
  0.0000

>  <r_epik_Charging_Adjusted_Penalty> (1)
0

>  <i_epik_Tot_Q> (1)
0

>  <i_epik_Tot_abs_Q> (1)
0

>  <s_lp_Force_Field> (1)
S-OPLS

>  <r_lp_Energy> (1)
21.478

>  <b_lp_Chiralities_Consistent> (1)
1

$$$$
