26331_Ethylpyrazine
                    3D
 Schrodinger Suite 2021-3.
 16 16  0  0  1  0            999 V2000
   -0.0346    0.0037   -0.1561 C   0  0  0  0  0  0
    1.4770   -0.0339    0.1239 C   0  0  0  0  0  0
    2.0209   -1.4402    0.0774 C   0  0  0  0  0  0
    2.0435   -2.0541   -1.1159 N   0  0  0  0  0  0
    2.5019   -3.3071   -1.1424 C   0  0  0  0  0  0
    2.9383   -3.9621    0.0103 C   0  0  0  0  0  0
    2.9204   -3.3639    1.2050 N   0  0  0  0  0  0
    2.4626   -2.1099    1.2274 C   0  0  0  0  0  0
   -0.4044    1.0334   -0.1651 H   0  0  0  0  0  0
   -0.5889   -0.5519    0.6076 H   0  0  0  0  0  0
   -0.2469   -0.4510   -1.1277 H   0  0  0  0  0  0
    2.0009    0.5644   -0.6303 H   0  0  0  0  0  0
    1.6934    0.4125    1.1008 H   0  0  0  0  0  0
    2.5245   -3.8056   -2.1095 H   0  0  0  0  0  0
    3.3084   -4.9841   -0.0306 H   0  0  0  0  0  0
    2.4438   -1.6118    2.1951 H   0  0  0  0  0  0
  1  2  1  0  0  0
  1  9  1  0  0  0
  1 10  1  0  0  0
  1 11  1  0  0  0
  2  3  1  0  0  0
  2 12  1  0  0  0
  2 13  1  0  0  0
  3  8  1  0  0  0
  3  4  2  0  0  0
  4  5  1  0  0  0
  5  6  2  0  0  0
  5 14  1  0  0  0
  6  7  1  0  0  0
  6 15  1  0  0  0
  7  8  2  0  0  0
  8 16  1  0  0  0
M  END
>  <i_m_Spin_multiplicity> (1)
1

>  <s_j_Task> (1)
Single Point

>  <s_j_QM_Method> (1)
DFT(b3lyp-d3)

>  <s_j_QM_Basis> (1)
cc-pvtz(-f)

>  <i_j_Number_of_canonical_orbitals> (1)
250

>  <i_j_Geometry_convergence_category> (1)
3

>  <r_j_Gas_Phase_Energy> (1)
-343.069890284902

>  <r_j_Final_Energy> (1)
-343.069890284902

>  <r_j_HOMO> (1)
-0.268254876879058

>  <r_j_LUMO> (1)
-0.0729828270961953

>  <r_j_Polarizability> (1)
79.7544541042162

>  <r_j_QM_Dipole_(debye)> (1)
0.636219121322565

>  <r_j_QM_Dipole_X_(debye)> (1)
-0.296878864739062

>  <r_j_QM_Dipole_Y_(debye)> (1)
0.532754008808415

>  <r_j_QM_Dipole_Z_(debye)> (1)
-0.181137726899357

>  <r_j_Lowest_Frequency_(cm-1)> (1)
92.2515973297522

>  <r_j_Highest_Frequency_(cm-1)> (1)
3125.69244205157

>  <r_j_2nd_Lowest_Frequency_(cm-1)> (1)
155.783134289935

>  <i_j_Num_Negative_Frequencies> (1)
0

>  <r_j_Zero_Point_Energy_(kcal/mol)> (1)
83.1746733081092

>  <r_j_Entropy_(cal/mol/K)_298.15K_1.00E+00atm> (1)
81.705832184953

>  <r_j_Enthalpy_(kcal/mol)_298.15K_1.00E+00atm> (1)
4.84878662771121

>  <r_j_Free_Energy_(kcal/mol)_298.15K_1.00E+00atm> (1)
-19.5118072382325

>  <r_j_Internal_Energy_(kcal/mol)_298.15K_1.00E+00atm> (1)
4.25630103888394

>  <r_j_Heat_Capacity_(cal/mol/K)_298.15K_1.00E+00atm> (1)
25.6309245705335

>  <r_j_ln(Q)_298.15K_1.00E+00atm> (1)
32.9321212299068

>  <r_j_Total_Internal_Energy_(au)_298.15K_1.00E+00atm> (1)
-342.930560157587

>  <r_j_Total_Enthalpy_(au)_298.15K_1.00E+00atm> (1)
-342.929615971694

>  <r_j_Total_Free_Energy_(au)_298.15K_1.00E+00atm> (1)
-342.968437049352

>  <r_lp_tautomer_probability> (1)
1

>  <r_epik_Ionization_Penalty> (1)
  0.0000

>  <r_epik_Ionization_Penalty_Charging> (1)
  0.0000

>  <r_epik_Ionization_Penalty_Neutral> (1)
  0.0000

>  <r_epik_State_Penalty> (1)
  0.0000

>  <r_epik_Charging_Adjusted_Penalty> (1)
0

>  <i_epik_Tot_Q> (1)
0

>  <i_epik_Tot_abs_Q> (1)
0

>  <s_lp_Force_Field> (1)
S-OPLS

>  <r_lp_Energy> (1)
12.4847

>  <b_lp_Chiralities_Consistent> (1)
1

$$$$
