264_Butanoic acid
                    3D
 Schrodinger Suite 2021-3.
 13 12  0  0  1  0            999 V2000
   -0.5573    1.4663    0.0554 C   0  0  0  0  0  0
   -0.0202    0.0305    0.0245 C   0  0  0  0  0  0
    1.4898   -0.0711   -0.1904 C   0  0  0  0  0  0
    2.0679   -1.5289    0.0011 C   0  0  0  0  0  0
    3.1345   -1.7603   -0.6182 O   0  0  0  0  0  0
    1.4104   -2.2719    0.7765 O   0  5  0  0  0  0
   -1.6442    1.5039    0.2170 H   0  0  0  0  0  0
   -0.3456    1.9944   -0.8842 H   0  0  0  0  0  0
   -0.0839    2.0446    0.8603 H   0  0  0  0  0  0
   -0.2475   -0.4960    0.9577 H   0  0  0  0  0  0
   -0.5374   -0.5355   -0.7639 H   0  0  0  0  0  0
    1.7793    0.2978   -1.1837 H   0  0  0  0  0  0
    2.0013    0.5812    0.5373 H   0  0  0  0  0  0
  1  2  1  0  0  0
  1  7  1  0  0  0
  1  8  1  0  0  0
  1  9  1  0  0  0
  2  3  1  0  0  0
  2 10  1  0  0  0
  2 11  1  0  0  0
  3  4  1  0  0  0
  3 12  1  0  0  0
  3 13  1  0  0  0
  4  5  2  0  0  0
  4  6  1  0  0  0
M  END
>  <i_m_Spin_multiplicity> (1)
1

>  <s_j_Task> (1)
Single Point

>  <s_j_QM_Method> (1)
DFT(b3lyp-d3)

>  <s_j_QM_Basis> (1)
cc-pvtz(-f)

>  <i_j_Number_of_canonical_orbitals> (1)
201

>  <i_j_Geometry_convergence_category> (1)
3

>  <r_j_Gas_Phase_Energy> (1)
-307.265429324723

>  <r_j_Final_Energy> (1)
-307.265429324723

>  <r_j_HOMO> (1)
-0.033531721994239

>  <r_j_LUMO> (1)
0.16520156208446

>  <r_j_Polarizability> (1)
60.4282220151397

>  <r_j_QM_Dipole_(debye)> (1)
6.45152704540881

>  <r_j_QM_Dipole_X_(debye)> (1)
-3.887401730139

>  <r_j_QM_Dipole_Y_(debye)> (1)
5.14375467035383

>  <r_j_QM_Dipole_Z_(debye)> (1)
-0.228247447667521

>  <r_j_Lowest_Frequency_(cm-1)> (1)
111.34471716052

>  <r_j_Highest_Frequency_(cm-1)> (1)
3031.44174704287

>  <r_j_2nd_Lowest_Frequency_(cm-1)> (1)
121.741298640399

>  <i_j_Num_Negative_Frequencies> (1)
0

>  <r_j_Zero_Point_Energy_(kcal/mol)> (1)
65.7226993947903

>  <r_j_Entropy_(cal/mol/K)_298.15K_1.00E+00atm> (1)
79.6597761472786

>  <r_j_Enthalpy_(kcal/mol)_298.15K_1.00E+00atm> (1)
4.67251226618031

>  <r_j_Free_Energy_(kcal/mol)_298.15K_1.00E+00atm> (1)
-19.0780499921308

>  <r_j_Internal_Energy_(kcal/mol)_298.15K_1.00E+00atm> (1)
4.08002667735303

>  <r_j_Heat_Capacity_(cal/mol/K)_298.15K_1.00E+00atm> (1)
22.4059733194879

>  <r_j_ln(Q)_298.15K_1.00E+00atm> (1)
32.2000236830951

>  <r_j_Total_Internal_Energy_(au)_298.15K_1.00E+00atm> (1)
-307.154191599383

>  <r_j_Total_Enthalpy_(au)_298.15K_1.00E+00atm> (1)
-307.153247413491

>  <r_j_Total_Free_Energy_(au)_298.15K_1.00E+00atm> (1)
-307.191096343896

>  <r_epik_Ionization_Penalty> (1)
  0.0047

>  <r_epik_Ionization_Penalty_Charging> (1)
  0.0047

>  <r_epik_Ionization_Penalty_Neutral> (1)
  0.0000

>  <r_epik_State_Penalty> (1)
  0.0034

>  <r_epik_Charging_Adjusted_Penalty> (1)
0.00802355

>  <i_epik_Tot_Q> (1)
-1

>  <i_epik_Tot_abs_Q> (1)
1

>  <s_lp_Force_Field> (1)
S-OPLS

>  <r_lp_Energy> (1)
5.42024

>  <b_lp_Chiralities_Consistent> (1)
1

$$$$
