267302_Isopimaric acid
                    3D
 Schrodinger Suite 2021-3.
 51 53  0  0  1  0            999 V2000
   -0.0998    0.2599    0.0526 C   0  0  0  0  0  0
    1.4270    0.0376   -0.0301 C   0  0  0  0  0  0
    2.0121    0.8375   -1.2141 C   0  0  0  0  0  0
    3.5468    0.7906   -1.2666 C   0  0  0  0  0  0
    4.1878    1.3149    0.0404 C   0  0  0  0  0  0
    3.5932    0.5995    1.2369 C   0  0  0  0  0  0
    4.3193    0.2023    2.2842 C   0  0  0  0  0  0
    5.7883    0.4694    2.4508 C   0  0  0  0  0  0
    6.3167    1.5465    1.4753 C   0  0  0  0  0  0
    5.7483    1.2906    0.0360 C   0  0  0  0  0  0
    6.3081    2.3684   -0.9212 C   0  0  0  0  0  0
    6.0431    3.7991   -0.4448 C   0  0  0  0  0  0
    6.6323    4.0187    0.9494 C   0  0  0  0  0  0
    6.1727    3.0090    2.0301 C   0  0  0  0  0  0
    7.1308    3.1779    3.2284 C   0  0  0  0  0  0
    4.6928    3.3137    2.5459 C   0  0  0  0  0  0
    3.9125    3.8772    1.7275 O   0  0  0  0  0  0
    4.4503    2.9487    3.7206 O   0  5  0  0  0  0
    6.2605   -0.0879   -0.4444 C   0  0  0  0  0  0
    2.0858    0.5666    1.2692 C   0  0  0  0  0  0
    1.6511   -1.4615   -0.1404 C   0  0  0  0  0  0
    1.9102   -2.1808   -1.2333 C   0  0  0  0  0  0
   -0.3236    1.3219    0.2055 H   0  0  0  0  0  0
   -0.5359   -0.2974    0.8907 H   0  0  0  0  0  0
   -0.5946   -0.0728   -0.8670 H   0  0  0  0  0  0
    1.5813    0.4823   -2.1607 H   0  0  0  0  0  0
    1.6886    1.8809   -1.1009 H   0  0  0  0  0  0
    3.8594   -0.2406   -1.4555 H   0  0  0  0  0  0
    3.8922    1.3883   -2.1185 H   0  0  0  0  0  0
    3.8753    2.3582    0.1687 H   0  0  0  0  0  0
    3.8087   -0.2515    3.1336 H   0  0  0  0  0  0
    5.9406    0.8020    3.4807 H   0  0  0  0  0  0
    6.3645   -0.4625    2.3331 H   0  0  0  0  0  0
    7.4048    1.3904    1.3767 H   0  0  0  0  0  0
    7.3964    2.2141   -1.0030 H   0  0  0  0  0  0
    5.9062    2.2140   -1.9321 H   0  0  0  0  0  0
    6.4834    4.5116   -1.1582 H   0  0  0  0  0  0
    4.9714    4.0017   -0.3889 H   0  0  0  0  0  0
    7.7322    3.9647    0.8691 H   0  0  0  0  0  0
    6.3869    5.0284    1.2987 H   0  0  0  0  0  0
    8.1563    2.8678    2.9758 H   0  0  0  0  0  0
    6.7762    2.6183    4.0938 H   0  0  0  0  0  0
    7.1648    4.2321    3.5298 H   0  0  0  0  0  0
    7.3351   -0.1889   -0.2501 H   0  0  0  0  0  0
    6.1104   -0.2155   -1.5220 H   0  0  0  0  0  0
    5.7424   -0.9073    0.0622 H   0  0  0  0  0  0
    1.7553    1.6046    1.4237 H   0  0  0  0  0  0
    1.7286   -0.0088    2.1338 H   0  0  0  0  0  0
    1.5361   -1.9931    0.8067 H   0  0  0  0  0  0
    2.0479   -1.7266   -2.2102 H   0  0  0  0  0  0
    2.0072   -3.2623   -1.1863 H   0  0  0  0  0  0
  1  2  1  0  0  0
  1 23  1  0  0  0
  1 24  1  0  0  0
  1 25  1  0  0  0
  2 20  1  0  0  0
  2  3  1  0  0  0
  2 21  1  0  0  0
  3  4  1  0  0  0
  3 26  1  0  0  0
  3 27  1  0  0  0
  4  5  1  0  0  0
  4 28  1  0  0  0
  4 29  1  0  0  0
  5 10  1  0  0  0
  5  6  1  0  0  0
  5 30  1  0  0  0
  6  7  2  0  0  0
  6 20  1  0  0  0
  7  8  1  0  0  0
  7 31  1  0  0  0
  8  9  1  0  0  0
  8 32  1  0  0  0
  8 33  1  0  0  0
  9 14  1  0  0  0
  9 10  1  0  0  0
  9 34  1  0  0  0
 10 11  1  0  0  0
 10 19  1  0  0  0
 11 12  1  0  0  0
 11 35  1  0  0  0
 11 36  1  0  0  0
 12 13  1  0  0  0
 12 37  1  0  0  0
 12 38  1  0  0  0
 13 14  1  0  0  0
 13 39  1  0  0  0
 13 40  1  0  0  0
 14 15  1  0  0  0
 14 16  1  0  0  0
 15 41  1  0  0  0
 15 42  1  0  0  0
 15 43  1  0  0  0
 16 17  2  0  0  0
 16 18  1  0  0  0
 19 44  1  0  0  0
 19 45  1  0  0  0
 19 46  1  0  0  0
 20 47  1  0  0  0
 20 48  1  0  0  0
 21 22  2  0  0  0
 21 49  1  0  0  0
 22 50  1  0  0  0
 22 51  1  0  0  0
M  END
>  <i_m_Spin_multiplicity> (1)
1

>  <s_j_Task> (1)
Single Point

>  <s_j_QM_Method> (1)
DFT(b3lyp-d3)

>  <s_j_QM_Basis> (1)
cc-pvtz(-f)

>  <i_j_Number_of_canonical_orbitals> (1)
752

>  <i_j_Geometry_convergence_category> (1)
0

>  <r_j_Gas_Phase_Energy> (1)
-930.451150525903

>  <r_j_Final_Energy> (1)
-930.451150525903

>  <r_j_HOMO> (1)
-0.0518445492356893

>  <r_j_LUMO> (1)
0.0907901156924996

>  <r_j_Polarizability> (1)
231.016636593039

>  <r_j_QM_Dipole_(debye)> (1)
8.55004132572265

>  <r_j_QM_Dipole_X_(debye)> (1)
-0.40395048036926

>  <r_j_QM_Dipole_Y_(debye)> (1)
-6.02373359059348

>  <r_j_QM_Dipole_Z_(debye)> (1)
-6.05430956513874

>  <r_j_Lowest_Frequency_(cm-1)> (1)
59.0520603930411

>  <r_j_Highest_Frequency_(cm-1)> (1)
3163.11570274427

>  <r_j_2nd_Lowest_Frequency_(cm-1)> (1)
74.7725862855188

>  <i_j_Num_Negative_Frequencies> (1)
0

>  <r_j_Zero_Point_Energy_(kcal/mol)> (1)
282.408089163437

>  <r_j_Entropy_(cal/mol/K)_298.15K_1.00E+00atm> (1)
136.252979206193

>  <r_j_Enthalpy_(kcal/mol)_298.15K_1.00E+00atm> (1)
12.9459654933461

>  <r_j_Free_Energy_(kcal/mol)_298.15K_1.00E+00atm> (1)
-27.6778602569804

>  <r_j_Internal_Energy_(kcal/mol)_298.15K_1.00E+00atm> (1)
12.3534799045189

>  <r_j_Heat_Capacity_(cal/mol/K)_298.15K_1.00E+00atm> (1)
84.7182756108171

>  <r_j_ln(Q)_298.15K_1.00E+00atm> (1)
46.7148244259647

>  <r_j_Total_Internal_Energy_(au)_298.15K_1.00E+00atm> (1)
-929.981418062633

>  <r_j_Total_Enthalpy_(au)_298.15K_1.00E+00atm> (1)
-929.980473876741

>  <r_j_Total_Free_Energy_(au)_298.15K_1.00E+00atm> (1)
-930.045212064279

>  <r_epik_Ionization_Penalty> (1)
  0.0051

>  <r_epik_Ionization_Penalty_Charging> (1)
  0.0051

>  <r_epik_Ionization_Penalty_Neutral> (1)
  0.0000

>  <r_epik_State_Penalty> (1)
  0.0037

>  <r_epik_Charging_Adjusted_Penalty> (1)
0.00882179

>  <i_epik_Tot_Q> (1)
-1

>  <i_epik_Tot_abs_Q> (1)
1

>  <s_lp_Force_Field> (1)
S-OPLS

>  <r_lp_Energy> (1)
38.7301

>  <b_lp_Chiralities_Consistent> (1)
1

$$$$
