2724127_Benzylamine hydrochloride
                    3D
 Schrodinger Suite 2021-3.
 18 18  0  0  1  0            999 V2000
   -2.8022    0.0000    0.0538 C   0  0  0  0  0  0
   -2.1084    1.2117    0.0221 C   0  0  0  0  0  0
   -0.7163    1.2144   -0.0365 C   0  0  0  0  0  0
   -0.0153    0.0002   -0.0633 C   0  0  0  0  0  0
   -0.7161   -1.2141   -0.0358 C   0  0  0  0  0  0
   -2.1081   -1.2117    0.0229 C   0  0  0  0  0  0
    1.4810    0.0002   -0.0589 C   0  0  0  0  0  0
    1.9769   -0.0005    1.4115 N   0  3  1  0  0  0
   -3.8868   -0.0001    0.0925 H   0  0  0  0  0  0
   -2.6512    2.1510    0.0317 H   0  0  0  0  0  0
   -0.1785    2.1589   -0.0820 H   0  0  0  0  0  0
   -0.1781   -2.1585   -0.0809 H   0  0  0  0  0  0
   -2.6508   -2.1511    0.0330 H   0  0  0  0  0  0
    1.9186   -0.8911   -0.5125 H   0  0  0  0  0  0
    1.9186    0.8920   -0.5116 H   0  0  0  0  0  0
    3.0003   -0.0008    1.4916 H   0  0  0  0  0  0
    1.6101   -0.8248    1.8997 H   0  0  0  0  0  0
    1.6105    0.8234    1.9005 H   0  0  0  0  0  0
  1  6  1  0  0  0
  1  2  2  0  0  0
  1  9  1  0  0  0
  2  3  1  0  0  0
  2 10  1  0  0  0
  3  4  2  0  0  0
  3 11  1  0  0  0
  4  5  1  0  0  0
  4  7  1  0  0  0
  5  6  2  0  0  0
  5 12  1  0  0  0
  6 13  1  0  0  0
  7  8  1  0  0  0
  7 14  1  0  0  0
  7 15  1  0  0  0
  8 16  1  0  0  0
  8 17  1  0  0  0
  8 18  1  0  0  0
M  END
>  <i_m_Spin_multiplicity> (1)
1

>  <s_j_Task> (1)
Single Point

>  <s_j_QM_Method> (1)
DFT(b3lyp-d3)

>  <s_j_QM_Basis> (1)
cc-pvtz(-f)

>  <i_j_Number_of_canonical_orbitals> (1)
270

>  <i_j_Geometry_convergence_category> (1)
0

>  <r_j_Gas_Phase_Energy> (1)
-327.398702560545

>  <r_j_Final_Energy> (1)
-327.398702560545

>  <r_j_HOMO> (1)
-0.401425926660044

>  <r_j_LUMO> (1)
-0.195083473665289

>  <r_j_Polarizability> (1)
83.3515469569299

>  <r_j_QM_Dipole_(debye)> (1)
8.91775234908217

>  <r_j_QM_Dipole_X_(debye)> (1)
8.0209885124122

>  <r_j_QM_Dipole_Y_(debye)> (1)
-0.00147680619607316

>  <r_j_QM_Dipole_Z_(debye)> (1)
3.89744121987176

>  <r_j_Lowest_Frequency_(cm-1)> (1)
99.6914643398976

>  <r_j_Highest_Frequency_(cm-1)> (1)
3434.95767723292

>  <r_j_2nd_Lowest_Frequency_(cm-1)> (1)
143.039045072371

>  <i_j_Num_Negative_Frequencies> (1)
0

>  <r_j_Zero_Point_Energy_(kcal/mol)> (1)
100.519278380332

>  <r_j_Entropy_(cal/mol/K)_298.15K_1.00E+00atm> (1)
82.7501359344744

>  <r_j_Enthalpy_(kcal/mol)_298.15K_1.00E+00atm> (1)
5.01678106574622

>  <r_j_Free_Energy_(kcal/mol)_298.15K_1.00E+00atm> (1)
-19.6551719631173

>  <r_j_Internal_Energy_(kcal/mol)_298.15K_1.00E+00atm> (1)
4.42429547691895

>  <r_j_Heat_Capacity_(cal/mol/K)_298.15K_1.00E+00atm> (1)
27.4677443297559

>  <r_j_ln(Q)_298.15K_1.00E+00atm> (1)
33.1740928956963

>  <r_j_Total_Internal_Energy_(au)_298.15K_1.00E+00atm> (1)
-327.231464329293

>  <r_j_Total_Enthalpy_(au)_298.15K_1.00E+00atm> (1)
-327.2305201434

>  <r_j_Total_Free_Energy_(au)_298.15K_1.00E+00atm> (1)
-327.269837403471

>  <r_epik_Ionization_Penalty> (1)
  0.0275

>  <r_epik_Ionization_Penalty_Charging> (1)
  0.0275

>  <r_epik_Ionization_Penalty_Neutral> (1)
  0.0000

>  <r_epik_State_Penalty> (1)
  0.0225

>  <r_epik_Charging_Adjusted_Penalty> (1)
0.0500524

>  <i_epik_Tot_Q> (1)
1

>  <i_epik_Tot_abs_Q> (1)
1

>  <s_lp_Force_Field> (1)
S-OPLS

>  <r_lp_Energy> (1)
12.322

>  <b_lp_Chiralities_Consistent> (1)
1

$$$$
