2724554_Tetracosanedioic acid
                    3D
 Schrodinger Suite 2021-3.
 72 71  0  0  1  0            999 V2000
   -0.0733    0.2177   -0.2358 C   0  0  0  0  0  0
    1.4590    0.2134   -0.2932 C   0  0  0  0  0  0
    2.0696   -1.1933   -0.2259 C   0  0  0  0  0  0
    3.6068   -1.2157   -0.2017 C   0  0  0  0  0  0
    4.2729   -0.7331   -1.4972 C   0  0  0  0  0  0
    5.8055   -0.7522   -1.4401 C   0  0  0  0  0  0
    6.4693   -0.2838   -2.7408 C   0  0  0  0  0  0
    7.9988   -0.2016   -2.6650 C   0  0  0  0  0  0
    8.6529    0.2630   -3.9723 C   0  0  0  0  0  0
   10.1727    0.4337   -3.8778 C   0  0  0  0  0  0
   10.8198    0.8901   -5.1906 C   0  0  0  0  0  0
   12.3360    1.0726   -5.0749 C   0  0  0  0  0  0
   13.1559   -0.2573   -4.8499 C   0  0  0  0  0  0
   14.3797   -0.0809   -4.6413 O   0  0  0  0  0  0
   12.5008   -1.3329   -4.9207 O   0  5  0  0  0  0
   -0.6796    1.6255   -0.2823 C   0  0  0  0  0  0
   -2.2112    1.6374   -0.2173 C   0  0  0  0  0  0
   -2.8156    3.0466   -0.2366 C   0  0  0  0  0  0
   -4.3468    3.0555   -0.1602 C   0  0  0  0  0  0
   -4.9586    4.4616   -0.1498 C   0  0  0  0  0  0
   -6.4893    4.4594   -0.0595 C   0  0  0  0  0  0
   -7.1157    5.8585   -0.0190 C   0  0  0  0  0  0
   -8.6467    5.8432    0.0831 C   0  0  0  0  0  0
   -9.2817    7.2368    0.1597 C   0  0  0  0  0  0
  -10.8060    7.2314    0.2774 C   0  0  0  0  0  0
  -11.4321    8.6455    0.5995 C   0  0  0  0  0  0
  -12.6272    8.7864    0.2423 O   0  0  0  0  0  0
  -10.6732    9.4474    1.2044 O   0  5  0  0  0  0
   -0.4707   -0.3780   -1.0705 H   0  0  0  0  0  0
   -0.4053   -0.2899    0.6818 H   0  0  0  0  0  0
    1.7821    0.7182   -1.2126 H   0  0  0  0  0  0
    1.8544    0.8162    0.5376 H   0  0  0  0  0  0
    1.6896   -1.6976    0.6738 H   0  0  0  0  0  0
    1.7101   -1.7861   -1.0797 H   0  0  0  0  0  0
    3.9618   -0.6011    0.6385 H   0  0  0  0  0  0
    3.9472   -2.2390    0.0089 H   0  0  0  0  0  0
    3.9290   -1.3591   -2.3337 H   0  0  0  0  0  0
    3.9429    0.2880   -1.7292 H   0  0  0  0  0  0
    6.1416   -0.1128   -0.6107 H   0  0  0  0  0  0
    6.1525   -1.7670   -1.1973 H   0  0  0  0  0  0
    6.1789   -0.9589   -3.5591 H   0  0  0  0  0  0
    6.0700    0.7049   -3.0120 H   0  0  0  0  0  0
    8.2804    0.4864   -1.8539 H   0  0  0  0  0  0
    8.4081   -1.1821   -2.3833 H   0  0  0  0  0  0
    8.4177   -0.4590   -4.7682 H   0  0  0  0  0  0
    8.1922    1.2143   -4.2834 H   0  0  0  0  0  0
   10.4023    1.1611   -3.0825 H   0  0  0  0  0  0
   10.6509   -0.5125   -3.6028 H   0  0  0  0  0  0
   10.6309    0.1197   -5.9485 H   0  0  0  0  0  0
   10.3356    1.8215   -5.5325 H   0  0  0  0  0  0
   12.7298    1.5424   -5.9880 H   0  0  0  0  0  0
   12.5831    1.7665   -4.2579 H   0  0  0  0  0  0
   -0.2771    2.2198    0.5508 H   0  0  0  0  0  0
   -0.3503    2.1331   -1.2003 H   0  0  0  0  0  0
   -2.6156    1.0560   -1.0587 H   0  0  0  0  0  0
   -2.5392    1.1160    0.6939 H   0  0  0  0  0  0
   -2.4072    3.6269    0.6035 H   0  0  0  0  0  0
   -2.4926    3.5693   -1.1485 H   0  0  0  0  0  0
   -4.7558    2.4871   -1.0084 H   0  0  0  0  0  0
   -4.6661    2.5167    0.7440 H   0  0  0  0  0  0
   -4.5459    5.0298    0.6966 H   0  0  0  0  0  0
   -4.6465    5.0020   -1.0554 H   0  0  0  0  0  0
   -6.9010    3.9011   -0.9134 H   0  0  0  0  0  0
   -6.7955    3.9016    0.8380 H   0  0  0  0  0  0
   -6.7031    6.4170    0.8337 H   0  0  0  0  0  0
   -6.8154    6.4181   -0.9173 H   0  0  0  0  0  0
   -9.0572    5.2923   -0.7776 H   0  0  0  0  0  0
   -8.9389    5.2634    0.9725 H   0  0  0  0  0  0
   -8.8935    7.7958    1.0193 H   0  0  0  0  0  0
   -8.9856    7.8189   -0.7260 H   0  0  0  0  0  0
  -11.2773    6.8347   -0.6318 H   0  0  0  0  0  0
  -11.1020    6.5518    1.0941 H   0  0  0  0  0  0
  1  2  1  0  0  0
  1 16  1  0  0  0
  1 29  1  0  0  0
  1 30  1  0  0  0
  2  3  1  0  0  0
  2 31  1  0  0  0
  2 32  1  0  0  0
  3  4  1  0  0  0
  3 33  1  0  0  0
  3 34  1  0  0  0
  4  5  1  0  0  0
  4 35  1  0  0  0
  4 36  1  0  0  0
  5  6  1  0  0  0
  5 37  1  0  0  0
  5 38  1  0  0  0
  6  7  1  0  0  0
  6 39  1  0  0  0
  6 40  1  0  0  0
  7  8  1  0  0  0
  7 41  1  0  0  0
  7 42  1  0  0  0
  8  9  1  0  0  0
  8 43  1  0  0  0
  8 44  1  0  0  0
  9 10  1  0  0  0
  9 45  1  0  0  0
  9 46  1  0  0  0
 10 11  1  0  0  0
 10 47  1  0  0  0
 10 48  1  0  0  0
 11 12  1  0  0  0
 11 49  1  0  0  0
 11 50  1  0  0  0
 12 13  1  0  0  0
 12 51  1  0  0  0
 12 52  1  0  0  0
 13 14  2  0  0  0
 13 15  1  0  0  0
 16 17  1  0  0  0
 16 53  1  0  0  0
 16 54  1  0  0  0
 17 18  1  0  0  0
 17 55  1  0  0  0
 17 56  1  0  0  0
 18 19  1  0  0  0
 18 57  1  0  0  0
 18 58  1  0  0  0
 19 20  1  0  0  0
 19 59  1  0  0  0
 19 60  1  0  0  0
 20 21  1  0  0  0
 20 61  1  0  0  0
 20 62  1  0  0  0
 21 22  1  0  0  0
 21 63  1  0  0  0
 21 64  1  0  0  0
 22 23  1  0  0  0
 22 65  1  0  0  0
 22 66  1  0  0  0
 23 24  1  0  0  0
 23 67  1  0  0  0
 23 68  1  0  0  0
 24 25  1  0  0  0
 24 69  1  0  0  0
 24 70  1  0  0  0
 25 26  1  0  0  0
 25 71  1  0  0  0
 25 72  1  0  0  0
 26 27  2  0  0  0
 26 28  1  0  0  0
M  END
>  <s_lp_Force_Field> (1)
S-OPLS

>  <r_lp_Energy> (1)
14.69764

>  <b_lp_Chiralities_Consistent> (1)
1

>  <r_epik_Ionization_Penalty> (1)
  0.0097

>  <r_epik_Ionization_Penalty_Charging> (1)
  0.0097

>  <r_epik_Ionization_Penalty_Neutral> (1)
  0.0000

>  <r_epik_State_Penalty> (1)
  0.0074

>  <r_epik_Charging_Adjusted_Penalty> (1)
0.0170680524587756

>  <i_epik_Tot_Q> (1)
-2

>  <i_epik_Tot_abs_Q> (1)
2

>  <i_m_Spin_multiplicity> (1)
1

>  <s_j_Task> (1)
Single Point

>  <s_j_QM_Method> (1)
DFT(b3lyp-d3)

>  <s_j_QM_Basis> (1)
6-31g**

>  <i_j_Number_of_canonical_orbitals> (1)
640

>  <i_j_Geometry_convergence_category> (1)
3

>  <r_j_Gas_Phase_Energy> (1)
-1242.18647490235

>  <r_j_Final_Energy> (1)
-1242.18647490235

>  <r_j_HOMO> (1)
0.0165541816792106

>  <r_j_LUMO> (1)
0.174394116120123

>  <r_j_Polarizability> (1)
280.442485590637

>  <r_j_QM_Dipole_(debye)> (1)
16.6158321944523

>  <r_j_QM_Dipole_X_(debye)> (1)
-0.394848219124719

>  <r_j_QM_Dipole_Y_(debye)> (1)
-15.758830846431

>  <r_j_QM_Dipole_Z_(debye)> (1)
5.25254459777618

>  <r_j_Lowest_Frequency_(cm-1)> (1)
-13.3097502672854

>  <r_j_Highest_Frequency_(cm-1)> (1)
3095.99807286055

>  <r_j_2nd_Lowest_Frequency_(cm-1)> (1)
3.89019125221354

>  <i_j_Num_Negative_Frequencies> (1)
1

>  <r_j_Zero_Point_Energy_(kcal/mol)> (1)
409.182337382464

>  <r_j_Entropy_(cal/mol/K)_298.15K_1.00E+00atm> (1)
200.320283665802

>  <r_j_Enthalpy_(kcal/mol)_298.15K_1.00E+00atm> (1)
20.6234339021737

>  <r_j_Free_Energy_(kcal/mol)_298.15K_1.00E+00atm> (1)
-39.1020586727853

>  <r_j_Internal_Energy_(kcal/mol)_298.15K_1.00E+00atm> (1)
20.0309483133464

>  <r_j_Heat_Capacity_(cal/mol/K)_298.15K_1.00E+00atm> (1)
119.339651760296

>  <r_j_ln(Q)_298.15K_1.00E+00atm> (1)
65.9966409481473

>  <r_j_Total_Internal_Energy_(au)_298.15K_1.00E+00atm> (1)
-1241.50247998878

>  <r_j_Total_Enthalpy_(au)_298.15K_1.00E+00atm> (1)
-1241.50153580289

>  <r_j_Total_Free_Energy_(au)_298.15K_1.00E+00atm> (1)
-1241.59671443434

$$$$
