2730_Chlorpyrifos
                    3D
 Schrodinger Suite 2021-3.
 29 29  0  0  1  0            999 V2000
   -1.2168    0.2349   -0.7669 C   0  0  0  0  0  0
   -0.0094    1.0171   -0.2935 C   0  0  0  0  0  0
    0.9507    0.0489    0.2195 O   0  0  0  0  0  0
    2.4836    0.4660    0.4805 P   0  0  1  0  0  0
    2.8597    1.9283    1.6686 S   0  0  0  0  0  0
    3.1362   -0.9695    0.7749 O   0  0  0  0  0  0
    2.3849   -2.1778    1.0964 C   0  0  0  0  0  0
    2.0181   -2.9424   -0.1638 C   0  0  0  0  0  0
    3.0747    0.7893   -1.0435 O   0  0  0  0  0  0
    3.0079   -0.1403   -2.0400 C   0  0  0  0  0  0
    1.8400   -0.3255   -2.6396 N   0  0  0  0  0  0
    1.7330   -1.1926   -3.6318 C   0  0  0  0  0  0
    2.8254   -1.9383   -4.1012 C   0  0  0  0  0  0
    4.0592   -1.7434   -3.4791 C   0  0  0  0  0  0
    4.1632   -0.8379   -2.4281 C   0  0  0  0  0  0
    5.6780   -0.5928   -1.6166 Cl  0  0  0  0  0  0
    2.6995   -3.0834   -5.4070 Cl  0  0  0  0  0  0
    0.1413   -1.3753   -4.3339 Cl  0  0  0  0  0  0
   -1.9872    0.9246   -1.1259 H   0  0  0  0  0  0
   -1.6376   -0.3606    0.0485 H   0  0  0  0  0  0
   -0.9361   -0.4300   -1.5874 H   0  0  0  0  0  0
    0.4531    1.5633   -1.1204 H   0  0  0  0  0  0
   -0.2516    1.7164    0.5128 H   0  0  0  0  0  0
    3.0609   -2.7530    1.7328 H   0  0  0  0  0  0
    1.4964   -1.9139    1.6751 H   0  0  0  0  0  0
    1.5420   -3.8912    0.1053 H   0  0  0  0  0  0
    2.9116   -3.1614   -0.7555 H   0  0  0  0  0  0
    1.3202   -2.3655   -0.7741 H   0  0  0  0  0  0
    4.9275   -2.3011   -3.8087 H   0  0  0  0  0  0
  1  2  1  0  0  0
  1 19  1  0  0  0
  1 20  1  0  0  0
  1 21  1  0  0  0
  2  3  1  0  0  0
  2 22  1  0  0  0
  2 23  1  0  0  0
  3  4  1  0  0  0
  4  5  2  0  0  0
  4  6  1  0  0  0
  4  9  1  0  0  0
  6  7  1  0  0  0
  7  8  1  0  0  0
  7 24  1  0  0  0
  7 25  1  0  0  0
  8 26  1  0  0  0
  8 27  1  0  0  0
  8 28  1  0  0  0
  9 10  1  0  0  0
 10 15  1  0  0  0
 10 11  2  0  0  0
 11 12  1  0  0  0
 12 13  2  0  0  0
 12 18  1  0  0  0
 13 14  1  0  0  0
 13 17  1  0  0  0
 14 15  2  0  0  0
 14 29  1  0  0  0
 15 16  1  0  0  0
M  END
>  <i_m_Spin_multiplicity> (1)
1

>  <s_j_Task> (1)
Single Point

>  <s_j_QM_Method> (1)
DFT(b3lyp-d3)

>  <s_j_QM_Basis> (1)
cc-pvtz(-f)

>  <i_j_Number_of_canonical_orbitals> (1)
529

>  <i_j_Geometry_convergence_category> (1)
3

>  <r_j_Gas_Phase_Energy> (1)
-2750.62496430801

>  <r_j_Final_Energy> (1)
-2750.62496430801

>  <r_j_HOMO> (1)
-0.247866229832109

>  <r_j_LUMO> (1)
-0.0668887752115664

>  <r_j_Polarizability> (1)
200.446839754385

>  <r_j_QM_Dipole_(debye)> (1)
4.0587701405427

>  <r_j_QM_Dipole_X_(debye)> (1)
-1.3444152376972

>  <r_j_QM_Dipole_Y_(debye)> (1)
-3.48915537374287

>  <r_j_QM_Dipole_Z_(debye)> (1)
-1.57859351965281

>  <r_j_Lowest_Frequency_(cm-1)> (1)
38.2747592245851

>  <r_j_Highest_Frequency_(cm-1)> (1)
3173.56639188148

>  <r_j_2nd_Lowest_Frequency_(cm-1)> (1)
49.2497863092114

>  <i_j_Num_Negative_Frequencies> (1)
0

>  <r_j_Zero_Point_Energy_(kcal/mol)> (1)
125.658813287204

>  <r_j_Entropy_(cal/mol/K)_298.15K_1.00E+00atm> (1)
139.906490122285

>  <r_j_Enthalpy_(kcal/mol)_298.15K_1.00E+00atm> (1)
12.4693768043699

>  <r_j_Free_Energy_(kcal/mol)_298.15K_1.00E+00atm> (1)
-29.2437432255895

>  <r_j_Internal_Energy_(kcal/mol)_298.15K_1.00E+00atm> (1)
11.8768912155426

>  <r_j_Heat_Capacity_(cal/mol/K)_298.15K_1.00E+00atm> (1)
69.4561470687417

>  <r_j_ln(Q)_298.15K_1.00E+00atm> (1)
49.3577291617718

>  <r_j_Total_Internal_Energy_(au)_298.15K_1.00E+00atm> (1)
-2750.40578721017

>  <r_j_Total_Enthalpy_(au)_298.15K_1.00E+00atm> (1)
-2750.40484302427

>  <r_j_Total_Free_Energy_(au)_298.15K_1.00E+00atm> (1)
-2750.47131711275

>  <r_lp_tautomer_probability> (1)
1

>  <r_epik_Ionization_Penalty> (1)
  0.0000

>  <r_epik_Ionization_Penalty_Charging> (1)
  0.0000

>  <r_epik_Ionization_Penalty_Neutral> (1)
  0.0000

>  <r_epik_State_Penalty> (1)
  0.0000

>  <r_epik_Charging_Adjusted_Penalty> (1)
0

>  <i_epik_Tot_Q> (1)
0

>  <i_epik_Tot_abs_Q> (1)
0

>  <s_lp_Force_Field> (1)
S-OPLS

>  <r_lp_Energy> (1)
9.17387

>  <b_lp_Chiralities_Consistent> (1)
1

$$$$
