27938_1-Methyl-3-isopropylcyclohexane
                    3D
 Schrodinger Suite 2021-3.
 30 30  0  0  1  0            999 V2000
   -2.6007   -1.5275   -2.5325 C   0  0  0  0  0  0
   -2.1086   -0.8180   -1.2668 C   0  0  0  0  0  0
   -2.6241   -1.5032    0.0076 C   0  0  0  0  0  0
   -2.1092   -0.7945    1.2652 C   0  0  0  0  0  0
   -0.5765   -0.7022    1.2758 C   0  0  0  0  0  0
   -0.0140   -0.0196    0.0114 C   0  0  0  0  0  0
   -0.5727   -0.7228   -1.2433 C   0  0  0  0  0  0
    1.5368    0.0381    0.0112 C   0  0  0  0  0  0
    2.0934    0.7434    1.2599 C   0  0  0  0  0  0
    2.0957    0.7244   -1.2472 C   0  0  0  0  0  0
   -2.2269   -2.5582   -2.5703 H   0  0  0  0  0  0
   -2.2554   -1.0156   -3.4378 H   0  0  0  0  0  0
   -3.6950   -1.5691   -2.5657 H   0  0  0  0  0  0
   -2.5044    0.2101   -1.2736 H   0  0  0  0  0  0
   -3.7211   -1.5325    0.0031 H   0  0  0  0  0  0
   -2.2824   -2.5493    0.0116 H   0  0  0  0  0  0
   -2.5303    0.2203    1.3044 H   0  0  0  0  0  0
   -2.4592   -1.3109    2.1672 H   0  0  0  0  0  0
   -0.2563   -0.1679    2.1755 H   0  0  0  0  0  0
   -0.1527   -1.7157    1.3451 H   0  0  0  0  0  0
   -0.3796    1.0213    0.0029 H   0  0  0  0  0  0
   -0.1537   -1.7404   -1.2943 H   0  0  0  0  0  0
   -0.2419   -0.2065   -2.1506 H   0  0  0  0  0  0
    1.9016   -1.0011    0.0192 H   0  0  0  0  0  0
    1.6922    1.7616    1.3407 H   0  0  0  0  0  0
    3.1844    0.8221    1.2056 H   0  0  0  0  0  0
    1.8506    0.2137    2.1844 H   0  0  0  0  0  0
    1.6936    1.7408   -1.3451 H   0  0  0  0  0  0
    1.8562    0.1802   -2.1642 H   0  0  0  0  0  0
    3.1864    0.8051   -1.1914 H   0  0  0  0  0  0
  1  2  1  0  0  0
  1 11  1  0  0  0
  1 12  1  0  0  0
  1 13  1  0  0  0
  2  7  1  0  0  0
  2  3  1  0  0  0
  2 14  1  0  0  0
  3  4  1  0  0  0
  3 15  1  0  0  0
  3 16  1  0  0  0
  4  5  1  0  0  0
  4 17  1  0  0  0
  4 18  1  0  0  0
  5  6  1  0  0  0
  5 19  1  0  0  0
  5 20  1  0  0  0
  6  7  1  0  0  0
  6  8  1  0  0  0
  6 21  1  0  0  0
  7 22  1  0  0  0
  7 23  1  0  0  0
  8  9  1  0  0  0
  8 10  1  0  0  0
  8 24  1  0  0  0
  9 25  1  0  0  0
  9 26  1  0  0  0
  9 27  1  0  0  0
 10 28  1  0  0  0
 10 29  1  0  0  0
 10 30  1  0  0  0
M  END
>  <i_m_Spin_multiplicity> (1)
1

>  <s_j_Task> (1)
Single Point

>  <s_j_QM_Method> (1)
DFT(b3lyp-d3)

>  <s_j_QM_Basis> (1)
cc-pvtz(-f)

>  <i_j_Number_of_canonical_orbitals> (1)
406

>  <i_j_Geometry_convergence_category> (1)
0

>  <r_j_Gas_Phase_Energy> (1)
-393.292847011989

>  <r_j_Final_Energy> (1)
-393.292847011989

>  <r_j_HOMO> (1)
-0.291336455538378

>  <r_j_LUMO> (1)
0.028577997240023

>  <r_j_Polarizability> (1)
117.955784347132

>  <r_j_QM_Dipole_(debye)> (1)
0.0891228053642624

>  <r_j_QM_Dipole_X_(debye)> (1)
-0.0319623552524284

>  <r_j_QM_Dipole_Y_(debye)> (1)
0.032482166227816

>  <r_j_QM_Dipole_Z_(debye)> (1)
0.0765910644909854

>  <r_j_Lowest_Frequency_(cm-1)> (1)
82.1766248147727

>  <r_j_Highest_Frequency_(cm-1)> (1)
3065.06728669259

>  <r_j_2nd_Lowest_Frequency_(cm-1)> (1)
137.341002645241

>  <i_j_Num_Negative_Frequencies> (1)
0

>  <r_j_Zero_Point_Energy_(kcal/mol)> (1)
176.969193970951

>  <r_j_Entropy_(cal/mol/K)_298.15K_1.00E+00atm> (1)
97.881540954924

>  <r_j_Enthalpy_(kcal/mol)_298.15K_1.00E+00atm> (1)
7.28038907156119

>  <r_j_Free_Energy_(kcal/mol)_298.15K_1.00E+00atm> (1)
-21.9029923641494

>  <r_j_Internal_Energy_(kcal/mol)_298.15K_1.00E+00atm> (1)
6.68790348273391

>  <r_j_Heat_Capacity_(cal/mol/K)_298.15K_1.00E+00atm> (1)
43.5087900262545

>  <r_j_ln(Q)_298.15K_1.00E+00atm> (1)
36.9679748793599

>  <r_j_Total_Internal_Energy_(au)_298.15K_1.00E+00atm> (1)
-393.000170795559

>  <r_j_Total_Enthalpy_(au)_298.15K_1.00E+00atm> (1)
-392.999226609667

>  <r_j_Total_Free_Energy_(au)_298.15K_1.00E+00atm> (1)
-393.045733288579

>  <r_lp_tautomer_probability> (1)
1

>  <r_epik_Ionization_Penalty> (1)
  0.0000

>  <r_epik_Ionization_Penalty_Charging> (1)
  0.0000

>  <r_epik_Ionization_Penalty_Neutral> (1)
  0.0000

>  <r_epik_State_Penalty> (1)
  0.0000

>  <r_epik_Charging_Adjusted_Penalty> (1)
0

>  <i_epik_Tot_Q> (1)
0

>  <i_epik_Tot_abs_Q> (1)
0

>  <s_lp_Force_Field> (1)
S-OPLS

>  <r_lp_Energy> (1)
11.6341

>  <b_lp_Chiralities_Consistent> (1)
1

$$$$
