27941_1,1-dimethyl-2-propylcyclohexane
                    3D
 Schrodinger Suite 2021-3.
 32 32  0  0  1  0            999 V2000
   -0.6141    1.6104   -0.0003 C   0  0  0  0  0  0
   -0.0766    0.1729    0.0019 C   0  0  0  0  0  0
    1.4687    0.0213    0.0004 C   0  0  0  0  0  0
    2.0689    0.7061   -1.2479 C   0  0  0  0  0  0
    2.0713    0.7065    1.2475 C   0  0  0  0  0  0
    1.8852   -1.4927    0.0004 C   0  0  0  0  0  0
    1.4406   -2.2779    1.2535 C   0  0  0  0  0  0
    2.0300   -3.7034    1.2790 C   0  0  0  0  0  0
    1.7176   -4.4637   -0.0004 C   0  0  0  0  0  0
    1.2468   -5.5853   -0.0010 O   0  0  0  0  0  0
    2.0323   -3.7029   -1.2788 C   0  0  0  0  0  0
    1.4433   -2.2771   -1.2542 C   0  0  0  0  0  0
   -1.7090    1.6043    0.0015 H   0  0  0  0  0  0
   -0.2929    2.1665   -0.8863 H   0  0  0  0  0  0
   -0.2901    2.1702    0.8824 H   0  0  0  0  0  0
   -0.4823   -0.3436    0.8801 H   0  0  0  0  0  0
   -0.4842   -0.3470   -0.8734 H   0  0  0  0  0  0
    3.1377    0.4810   -1.3404 H   0  0  0  0  0  0
    1.9699    1.7935   -1.1863 H   0  0  0  0  0  0
    1.5766    0.3870   -2.1712 H   0  0  0  0  0  0
    3.1408    0.4832    1.3369 H   0  0  0  0  0  0
    1.5821    0.3862    2.1720 H   0  0  0  0  0  0
    1.9704    1.7937    1.1868 H   0  0  0  0  0  0
    2.9880   -1.4918    0.0014 H   0  0  0  0  0  0
    1.7377   -1.7607    2.1696 H   0  0  0  0  0  0
    0.3462   -2.3508    1.2748 H   0  0  0  0  0  0
    3.1245   -3.6359    1.3661 H   0  0  0  0  0  0
    1.6613   -4.2836    2.1289 H   0  0  0  0  0  0
    3.1270   -3.6356   -1.3639 H   0  0  0  0  0  0
    1.6651   -4.2826   -2.1296 H   0  0  0  0  0  0
    0.3490   -2.3494   -1.2784 H   0  0  0  0  0  0
    1.7433   -1.7598   -2.1693 H   0  0  0  0  0  0
  1  2  1  0  0  0
  1 13  1  0  0  0
  1 14  1  0  0  0
  1 15  1  0  0  0
  2  3  1  0  0  0
  2 16  1  0  0  0
  2 17  1  0  0  0
  3  4  1  0  0  0
  3  5  1  0  0  0
  3  6  1  0  0  0
  4 18  1  0  0  0
  4 19  1  0  0  0
  4 20  1  0  0  0
  5 21  1  0  0  0
  5 22  1  0  0  0
  5 23  1  0  0  0
  6 12  1  0  0  0
  6  7  1  0  0  0
  6 24  1  0  0  0
  7  8  1  0  0  0
  7 25  1  0  0  0
  7 26  1  0  0  0
  8  9  1  0  0  0
  8 27  1  0  0  0
  8 28  1  0  0  0
  9 10  2  0  0  0
  9 11  1  0  0  0
 11 12  1  0  0  0
 11 29  1  0  0  0
 11 30  1  0  0  0
 12 31  1  0  0  0
 12 32  1  0  0  0
M  END
>  <i_m_Spin_multiplicity> (1)
1

>  <s_j_Task> (1)
Single Point

>  <s_j_QM_Method> (1)
DFT(b3lyp-d3)

>  <s_j_QM_Basis> (1)
cc-pvtz(-f)

>  <i_j_Number_of_canonical_orbitals> (1)
452

>  <i_j_Geometry_convergence_category> (1)
3

>  <r_j_Gas_Phase_Energy> (1)
-506.653634390278

>  <r_j_Final_Energy> (1)
-506.653634390278

>  <r_j_HOMO> (1)
-0.264113625902711

>  <r_j_LUMO> (1)
-0.042901043905371

>  <r_j_Polarizability> (1)
128.799859236874

>  <r_j_QM_Dipole_(debye)> (1)
3.34559993982427

>  <r_j_QM_Dipole_X_(debye)> (1)
0.949387220238823

>  <r_j_QM_Dipole_Y_(debye)> (1)
3.20806823200301

>  <r_j_QM_Dipole_Z_(debye)> (1)
0.00104029442179701

>  <r_j_Lowest_Frequency_(cm-1)> (1)
82.5043737524582

>  <r_j_Highest_Frequency_(cm-1)> (1)
3064.13265472032

>  <r_j_2nd_Lowest_Frequency_(cm-1)> (1)
87.7741557880445

>  <i_j_Num_Negative_Frequencies> (1)
0

>  <r_j_Zero_Point_Energy_(kcal/mol)> (1)
183.002201882461

>  <r_j_Entropy_(cal/mol/K)_298.15K_1.00E+00atm> (1)
106.563527384917

>  <r_j_Enthalpy_(kcal/mol)_298.15K_1.00E+00atm> (1)
8.42139774935614

>  <r_j_Free_Energy_(kcal/mol)_298.15K_1.00E+00atm> (1)
-23.3505179404568

>  <r_j_Internal_Energy_(kcal/mol)_298.15K_1.00E+00atm> (1)
7.82891216052887

>  <r_j_Heat_Capacity_(cal/mol/K)_298.15K_1.00E+00atm> (1)
50.5054675577768

>  <r_j_ln(Q)_298.15K_1.00E+00atm> (1)
39.4111154444705

>  <r_j_Total_Internal_Energy_(au)_298.15K_1.00E+00atm> (1)
-506.349525650623

>  <r_j_Total_Enthalpy_(au)_298.15K_1.00E+00atm> (1)
-506.348581464731

>  <r_j_Total_Free_Energy_(au)_298.15K_1.00E+00atm> (1)
-506.399213235578

>  <r_lp_tautomer_probability> (1)
1

>  <r_epik_Ionization_Penalty> (1)
  0.0000

>  <r_epik_Ionization_Penalty_Charging> (1)
  0.0000

>  <r_epik_Ionization_Penalty_Neutral> (1)
  0.0000

>  <r_epik_State_Penalty> (1)
  0.0000

>  <r_epik_Charging_Adjusted_Penalty> (1)
0

>  <i_epik_Tot_Q> (1)
0

>  <i_epik_Tot_abs_Q> (1)
0

>  <s_lp_Force_Field> (1)
S-OPLS

>  <r_lp_Energy> (1)
10.1977

>  <b_lp_Chiralities_Consistent> (1)
1

$$$$
