27960_2,4',5-Trichlorobiphenyl
                    3D
 Schrodinger Suite 2021-3.
 22 23  0  0  1  0            999 V2000
   -0.7043   -1.2127    0.0126 C   0  0  0  0  0  0
   -2.0976   -1.2230   -0.0174 C   0  0  0  0  0  0
   -2.7836   -0.0101   -0.0314 C   0  0  0  0  0  0
   -2.1018    1.2052   -0.0156 C   0  0  0  0  0  0
   -0.7084    1.1995    0.0145 C   0  0  0  0  0  0
    0.0027   -0.0054    0.0282 C   0  0  0  0  0  0
    1.4944   -0.0027    0.0422 C   0  0  0  0  0  0
    2.2373   -0.0002    1.2321 C   0  0  0  0  0  0
    3.6319    0.0024    1.2175 C   0  0  0  0  0  0
    4.3157    0.0027    0.0044 C   0  0  0  0  0  0
    3.5871    0.0003   -1.1830 C   0  0  0  0  0  0
    2.1950   -0.0024   -1.1711 C   0  0  0  0  0  0
    4.4363    0.0007   -2.7214 Cl  0  0  0  0  0  0
    1.4154   -0.0003    2.7856 Cl  0  0  0  0  0  0
   -4.5424   -0.0130   -0.0709 Cl  0  0  0  0  0  0
   -0.1606   -2.1523    0.0266 H   0  0  0  0  0  0
   -2.6463   -2.1579   -0.0299 H   0  0  0  0  0  0
   -2.6536    2.1383   -0.0267 H   0  0  0  0  0  0
   -0.1679    2.1410    0.0299 H   0  0  0  0  0  0
    4.1787    0.0043    2.1535 H   0  0  0  0  0  0
    5.3994    0.0048   -0.0180 H   0  0  0  0  0  0
    1.6424   -0.0042   -2.1038 H   0  0  0  0  0  0
  1  6  1  0  0  0
  1  2  2  0  0  0
  1 16  1  0  0  0
  2  3  1  0  0  0
  2 17  1  0  0  0
  3  4  2  0  0  0
  3 15  1  0  0  0
  4  5  1  0  0  0
  4 18  1  0  0  0
  5  6  2  0  0  0
  5 19  1  0  0  0
  6  7  1  0  0  0
  7 12  1  0  0  0
  7  8  2  0  0  0
  8  9  1  0  0  0
  8 14  1  0  0  0
  9 10  2  0  0  0
  9 20  1  0  0  0
 10 11  1  0  0  0
 10 21  1  0  0  0
 11 12  2  0  0  0
 11 13  1  0  0  0
 12 22  1  0  0  0
M  END
>  <i_m_Spin_multiplicity> (1)
1

>  <s_j_Task> (1)
Single Point

>  <s_j_QM_Method> (1)
DFT(b3lyp-d3)

>  <s_j_QM_Basis> (1)
cc-pvtz(-f)

>  <i_j_Number_of_canonical_orbitals> (1)
411

>  <i_j_Geometry_convergence_category> (1)
0

>  <r_j_Gas_Phase_Energy> (1)
-1842.35300888304

>  <r_j_Final_Energy> (1)
-1842.35300888304

>  <r_j_HOMO> (1)
-0.254898971676493

>  <r_j_LUMO> (1)
-0.0475407070050096

>  <r_j_Polarizability> (1)
172.92156726144

>  <r_j_QM_Dipole_(debye)> (1)
1.35331115299284

>  <r_j_QM_Dipole_X_(debye)> (1)
1.34354042284632

>  <r_j_QM_Dipole_Y_(debye)> (1)
0.00260406442344

>  <r_j_QM_Dipole_Z_(debye)> (1)
0.162306585945265

>  <r_j_Lowest_Frequency_(cm-1)> (1)
52.3927271431396

>  <r_j_Highest_Frequency_(cm-1)> (1)
3169.83973818226

>  <r_j_2nd_Lowest_Frequency_(cm-1)> (1)
61.3947007724416

>  <i_j_Num_Negative_Frequencies> (1)
0

>  <r_j_Zero_Point_Energy_(kcal/mol)> (1)
95.2819465257916

>  <r_j_Entropy_(cal/mol/K)_298.15K_1.00E+00atm> (1)
111.454048587276

>  <r_j_Enthalpy_(kcal/mol)_298.15K_1.00E+00atm> (1)
8.32209385656795

>  <r_j_Free_Energy_(kcal/mol)_298.15K_1.00E+00atm> (1)
-24.9079307297283

>  <r_j_Internal_Energy_(kcal/mol)_298.15K_1.00E+00atm> (1)
7.72960826774067

>  <r_j_Heat_Capacity_(cal/mol/K)_298.15K_1.00E+00atm> (1)
47.5422709254958

>  <r_j_ln(Q)_298.15K_1.00E+00atm> (1)
42.0397241712315

>  <r_j_Total_Internal_Energy_(au)_298.15K_1.00E+00atm> (1)
-1842.18884952017

>  <r_j_Total_Enthalpy_(au)_298.15K_1.00E+00atm> (1)
-1842.18790533428

>  <r_j_Total_Free_Energy_(au)_298.15K_1.00E+00atm> (1)
-1842.24086074957

>  <r_lp_tautomer_probability> (1)
1

>  <r_epik_Ionization_Penalty> (1)
  0.0000

>  <r_epik_Ionization_Penalty_Charging> (1)
  0.0000

>  <r_epik_Ionization_Penalty_Neutral> (1)
  0.0000

>  <r_epik_State_Penalty> (1)
  0.0000

>  <r_epik_Charging_Adjusted_Penalty> (1)
0

>  <i_epik_Tot_Q> (1)
0

>  <i_epik_Tot_abs_Q> (1)
0

>  <s_lp_Force_Field> (1)
S-OPLS

>  <r_lp_Energy> (1)
24.452579

>  <b_lp_Chiralities_Consistent> (1)
1

$$$$
