28023_2,3,3-Trimethylhexane
                    3D
 Schrodinger Suite 2021-3.
 29 28  0  0  1  0            999 V2000
   -2.1844    1.4931    0.0009 C   0  0  0  0  0  0
   -0.6522    1.5316   -0.0012 C   0  0  0  0  0  0
   -0.0423    0.1211    0.0011 C   0  0  0  0  0  0
    1.5067    0.0306    0.0003 C   0  0  0  0  0  0
    2.0793    0.7373   -1.2484 C   0  0  0  0  0  0
    2.0804    0.7374    1.2485 C   0  0  0  0  0  0
    1.9824   -1.4675    0.0003 C   0  0  0  0  0  0
    1.5718   -2.2607   -1.2533 C   0  0  0  0  0  0
    1.5683   -2.2617    1.2520 C   0  0  0  0  0  0
   -2.6119    2.5013   -0.0009 H   0  0  0  0  0  0
   -2.5651    0.9707    0.8864 H   0  0  0  0  0  0
   -2.5675    0.9666   -0.8810 H   0  0  0  0  0  0
   -0.3087    2.0895   -0.8804 H   0  0  0  0  0  0
   -0.3063    2.0934    0.8746 H   0  0  0  0  0  0
   -0.4295   -0.4117    0.8793 H   0  0  0  0  0  0
   -0.4306   -0.4149   -0.8746 H   0  0  0  0  0  0
    3.1565    0.5554   -1.3393 H   0  0  0  0  0  0
    1.9356    1.8201   -1.1911 H   0  0  0  0  0  0
    1.6016    0.3934   -2.1706 H   0  0  0  0  0  0
    3.1580    0.5572    1.3373 H   0  0  0  0  0  0
    1.6049    0.3921    2.1714 H   0  0  0  0  0  0
    1.9348    1.8201    1.1923 H   0  0  0  0  0  0
    3.0821   -1.4193    0.0018 H   0  0  0  0  0  0
    0.4857   -2.3896   -1.3119 H   0  0  0  0  0  0
    2.0136   -3.2624   -1.2238 H   0  0  0  0  0  0
    1.9048   -1.7848   -2.1790 H   0  0  0  0  0  0
    0.4821   -2.3923    1.3064 H   0  0  0  0  0  0
    1.8970   -1.7858    2.1792 H   0  0  0  0  0  0
    2.0117   -3.2628    1.2240 H   0  0  0  0  0  0
  1  2  1  0  0  0
  1 10  1  0  0  0
  1 11  1  0  0  0
  1 12  1  0  0  0
  2  3  1  0  0  0
  2 13  1  0  0  0
  2 14  1  0  0  0
  3  4  1  0  0  0
  3 15  1  0  0  0
  3 16  1  0  0  0
  4  5  1  0  0  0
  4  6  1  0  0  0
  4  7  1  0  0  0
  5 17  1  0  0  0
  5 18  1  0  0  0
  5 19  1  0  0  0
  6 20  1  0  0  0
  6 21  1  0  0  0
  6 22  1  0  0  0
  7  8  1  0  0  0
  7  9  1  0  0  0
  7 23  1  0  0  0
  8 24  1  0  0  0
  8 25  1  0  0  0
  8 26  1  0  0  0
  9 27  1  0  0  0
  9 28  1  0  0  0
  9 29  1  0  0  0
M  END
>  <i_m_Spin_multiplicity> (1)
1

>  <s_j_Task> (1)
Single Point

>  <s_j_QM_Method> (1)
DFT(b3lyp-d3)

>  <s_j_QM_Basis> (1)
cc-pvtz(-f)

>  <i_j_Number_of_canonical_orbitals> (1)
383

>  <i_j_Geometry_convergence_category> (1)
1

>  <r_j_Gas_Phase_Energy> (1)
-355.166859444436

>  <r_j_Final_Energy> (1)
-355.166859444436

>  <r_j_HOMO> (1)
-0.297926938707479

>  <r_j_LUMO> (1)
0.0231231133770407

>  <r_j_Polarizability> (1)
109.296428552437

>  <r_j_QM_Dipole_(debye)> (1)
0.0940793619242774

>  <r_j_QM_Dipole_X_(debye)> (1)
0.0865990309734456

>  <r_j_QM_Dipole_Y_(debye)> (1)
0.0367617207846586

>  <r_j_QM_Dipole_Z_(debye)> (1)
-0.000331752151735231

>  <r_j_Lowest_Frequency_(cm-1)> (1)
95.6956720699071

>  <r_j_Highest_Frequency_(cm-1)> (1)
3069.24506807039

>  <r_j_2nd_Lowest_Frequency_(cm-1)> (1)
123.940978699362

>  <i_j_Num_Negative_Frequencies> (1)
0

>  <r_j_Zero_Point_Energy_(kcal/mol)> (1)
171.424222077507

>  <r_j_Entropy_(cal/mol/K)_298.15K_1.00E+00atm> (1)
100.193162848519

>  <r_j_Enthalpy_(kcal/mol)_298.15K_1.00E+00atm> (1)
7.72290282274208

>  <r_j_Free_Energy_(kcal/mol)_298.15K_1.00E+00atm> (1)
-22.1496886805437

>  <r_j_Internal_Energy_(kcal/mol)_298.15K_1.00E+00atm> (1)
7.13041723391481

>  <r_j_Heat_Capacity_(cal/mol/K)_298.15K_1.00E+00atm> (1)
44.8370118888672

>  <r_j_ln(Q)_298.15K_1.00E+00atm> (1)
37.3843500976713

>  <r_j_Total_Internal_Energy_(au)_298.15K_1.00E+00atm> (1)
-354.88231451269

>  <r_j_Total_Enthalpy_(au)_298.15K_1.00E+00atm> (1)
-354.881370326797

>  <r_j_Total_Free_Energy_(au)_298.15K_1.00E+00atm> (1)
-354.928975331871

>  <r_lp_tautomer_probability> (1)
1

>  <r_epik_Ionization_Penalty> (1)
  0.0000

>  <r_epik_Ionization_Penalty_Charging> (1)
  0.0000

>  <r_epik_Ionization_Penalty_Neutral> (1)
  0.0000

>  <r_epik_State_Penalty> (1)
  0.0000

>  <r_epik_Charging_Adjusted_Penalty> (1)
0

>  <i_epik_Tot_Q> (1)
0

>  <i_epik_Tot_abs_Q> (1)
0

>  <s_lp_Force_Field> (1)
S-OPLS

>  <r_lp_Energy> (1)
10.5487

>  <b_lp_Chiralities_Consistent> (1)
1

$$$$
