28022_2,2,4-trimethylhexane
                    3D
 Schrodinger Suite 2021-3.
 29 28  0  0  1  0            999 V2000
   -0.6715    1.6373   -0.3813 C   0  0  0  0  0  0
   -0.1272    0.2189   -0.1713 C   0  0  0  0  0  0
    1.4055    0.1301   -0.0358 C   0  0  0  0  0  0
    2.1138    0.7868   -1.2345 C   0  0  0  0  0  0
    1.9410   -1.3131    0.1171 C   0  0  0  0  0  0
    1.5180   -2.1961    1.3290 C   0  0  0  0  0  0
    2.5733   -3.3143    1.4693 C   0  0  0  0  0  0
    0.1512   -2.8765    1.1073 C   0  0  0  0  0  0
    1.4923   -1.3790    2.6334 C   0  0  0  0  0  0
   -1.7653    1.6450   -0.3345 H   0  0  0  0  0  0
   -0.3829    2.0514   -1.3519 H   0  0  0  0  0  0
   -0.3013    2.3187    0.3942 H   0  0  0  0  0  0
   -0.5886   -0.1895    0.7327 H   0  0  0  0  0  0
   -0.4515   -0.4279   -0.9990 H   0  0  0  0  0  0
    1.6899    0.6959    0.8635 H   0  0  0  0  0  0
    1.8107    0.3082   -2.1743 H   0  0  0  0  0  0
    3.2016    0.6911   -1.1503 H   0  0  0  0  0  0
    1.8837    1.8528   -1.3135 H   0  0  0  0  0  0
    1.7177   -1.8674   -0.8066 H   0  0  0  0  0  0
    3.0358   -1.2299    0.1510 H   0  0  0  0  0  0
    2.3051   -4.0099    2.2727 H   0  0  0  0  0  0
    3.5618   -2.9010    1.6996 H   0  0  0  0  0  0
    2.6596   -3.8921    0.5418 H   0  0  0  0  0  0
    0.1574   -3.4695    0.1856 H   0  0  0  0  0  0
   -0.6698   -2.1609    1.0355 H   0  0  0  0  0  0
   -0.0761   -3.5552    1.9375 H   0  0  0  0  0  0
    1.3027   -2.0317    3.4932 H   0  0  0  0  0  0
    0.7100   -0.6138    2.6215 H   0  0  0  0  0  0
    2.4510   -0.8752    2.8019 H   0  0  0  0  0  0
  1  2  1  0  0  0
  1 10  1  0  0  0
  1 11  1  0  0  0
  1 12  1  0  0  0
  2  3  1  0  0  0
  2 13  1  0  0  0
  2 14  1  0  0  0
  3  4  1  0  0  0
  3  5  1  0  0  0
  3 15  1  0  0  0
  4 16  1  0  0  0
  4 17  1  0  0  0
  4 18  1  0  0  0
  5  6  1  0  0  0
  5 19  1  0  0  0
  5 20  1  0  0  0
  6  7  1  0  0  0
  6  8  1  0  0  0
  6  9  1  0  0  0
  7 21  1  0  0  0
  7 22  1  0  0  0
  7 23  1  0  0  0
  8 24  1  0  0  0
  8 25  1  0  0  0
  8 26  1  0  0  0
  9 27  1  0  0  0
  9 28  1  0  0  0
  9 29  1  0  0  0
M  END
>  <i_m_Spin_multiplicity> (1)
1

>  <s_j_Task> (1)
Single Point

>  <s_j_QM_Method> (1)
DFT(b3lyp-d3)

>  <s_j_QM_Basis> (1)
cc-pvtz(-f)

>  <i_j_Number_of_canonical_orbitals> (1)
384

>  <i_j_Geometry_convergence_category> (1)
1

>  <r_j_Gas_Phase_Energy> (1)
-355.167622702231

>  <r_j_Final_Energy> (1)
-355.167622702231

>  <r_j_HOMO> (1)
-0.305300382075826

>  <r_j_LUMO> (1)
0.00990124486391516

>  <r_j_Polarizability> (1)
110.370471577698

>  <r_j_QM_Dipole_(debye)> (1)
0.0854893887290493

>  <r_j_QM_Dipole_X_(debye)> (1)
-0.0220501330157909

>  <r_j_QM_Dipole_Y_(debye)> (1)
0.0601547300618423

>  <r_j_QM_Dipole_Z_(debye)> (1)
0.056600668462831

>  <r_j_Lowest_Frequency_(cm-1)> (1)
80.5521240496682

>  <r_j_Highest_Frequency_(cm-1)> (1)
3082.51905757362

>  <r_j_2nd_Lowest_Frequency_(cm-1)> (1)
132.464918241391

>  <i_j_Num_Negative_Frequencies> (1)
0

>  <r_j_Zero_Point_Energy_(kcal/mol)> (1)
171.41550559348

>  <r_j_Entropy_(cal/mol/K)_298.15K_1.00E+00atm> (1)
99.3250888469401

>  <r_j_Enthalpy_(kcal/mol)_298.15K_1.00E+00atm> (1)
7.63621440845633

>  <r_j_Free_Energy_(kcal/mol)_298.15K_1.00E+00atm> (1)
-21.9775608312589

>  <r_j_Internal_Energy_(kcal/mol)_298.15K_1.00E+00atm> (1)
7.04372881962905

>  <r_j_Heat_Capacity_(cal/mol/K)_298.15K_1.00E+00atm> (1)
44.6776252914398

>  <r_j_ln(Q)_298.15K_1.00E+00atm> (1)
37.0938318934638

>  <r_j_Total_Internal_Energy_(au)_298.15K_1.00E+00atm> (1)
-354.883229807868

>  <r_j_Total_Enthalpy_(au)_298.15K_1.00E+00atm> (1)
-354.882285621976

>  <r_j_Total_Free_Energy_(au)_298.15K_1.00E+00atm> (1)
-354.929478177078

>  <r_lp_tautomer_probability> (1)
1

>  <r_epik_Ionization_Penalty> (1)
  0.0000

>  <r_epik_Ionization_Penalty_Charging> (1)
  0.0000

>  <r_epik_Ionization_Penalty_Neutral> (1)
  0.0000

>  <r_epik_State_Penalty> (1)
  0.0000

>  <r_epik_Charging_Adjusted_Penalty> (1)
0

>  <i_epik_Tot_Q> (1)
0

>  <i_epik_Tot_abs_Q> (1)
0

>  <s_lp_Force_Field> (1)
S-OPLS

>  <r_lp_Energy> (1)
9.795192

>  <b_lp_Chiralities_Consistent> (1)
1

$$$$
