28024_2,4,4-trimethylhexane
                    3D
 Schrodinger Suite 2021-3.
 29 28  0  0  1  0            999 V2000
   -2.3256   -0.4741    1.3723 C   0  0  0  0  0  0
   -0.7913   -0.4592    1.3703 C   0  0  0  0  0  0
   -0.1022   -0.0189    0.0486 C   0  0  0  0  0  0
   -0.5901   -0.8597   -1.1459 C   0  0  0  0  0  0
   -0.4376    1.4640   -0.2242 C   0  0  0  0  0  0
    1.4480   -0.1135    0.1929 C   0  0  0  0  0  0
    2.1782   -1.4572   -0.0346 C   0  0  0  0  0  0
    1.7931   -2.5810    0.9390 C   0  0  0  0  0  0
    3.6960   -1.2157    0.0334 C   0  0  0  0  0  0
   -2.6996   -0.7761    2.3564 H   0  0  0  0  0  0
   -2.7258   -1.1834    0.6409 H   0  0  0  0  0  0
   -2.7516    0.5092    1.1507 H   0  0  0  0  0  0
   -0.4411    0.2094    2.1688 H   0  0  0  0  0  0
   -0.4423   -1.4579    1.6447 H   0  0  0  0  0  0
   -0.0226   -0.6126   -2.0502 H   0  0  0  0  0  0
   -1.6458   -0.6676   -1.3608 H   0  0  0  0  0  0
   -0.4785   -1.9335   -0.9642 H   0  0  0  0  0  0
    0.0177    1.8003   -1.1625 H   0  0  0  0  0  0
   -0.0590    2.1061    0.5798 H   0  0  0  0  0  0
   -1.5160    1.6295   -0.3066 H   0  0  0  0  0  0
    1.8821    0.5936   -0.5270 H   0  0  0  0  0  0
    1.7260    0.2709    1.1858 H   0  0  0  0  0  0
    1.9465   -1.8013   -1.0519 H   0  0  0  0  0  0
    1.9111   -2.2559    1.9799 H   0  0  0  0  0  0
    2.4369   -3.4553    0.7901 H   0  0  0  0  0  0
    0.7601   -2.9118    0.8060 H   0  0  0  0  0  0
    3.9912   -0.8811    1.0358 H   0  0  0  0  0  0
    4.0150   -0.4480   -0.6800 H   0  0  0  0  0  0
    4.2532   -2.1326   -0.1875 H   0  0  0  0  0  0
  1  2  1  0  0  0
  1 10  1  0  0  0
  1 11  1  0  0  0
  1 12  1  0  0  0
  2  3  1  0  0  0
  2 13  1  0  0  0
  2 14  1  0  0  0
  3  4  1  0  0  0
  3  5  1  0  0  0
  3  6  1  0  0  0
  4 15  1  0  0  0
  4 16  1  0  0  0
  4 17  1  0  0  0
  5 18  1  0  0  0
  5 19  1  0  0  0
  5 20  1  0  0  0
  6  7  1  0  0  0
  6 21  1  0  0  0
  6 22  1  0  0  0
  7  8  1  0  0  0
  7  9  1  0  0  0
  7 23  1  0  0  0
  8 24  1  0  0  0
  8 25  1  0  0  0
  8 26  1  0  0  0
  9 27  1  0  0  0
  9 28  1  0  0  0
  9 29  1  0  0  0
M  END
>  <i_m_Spin_multiplicity> (1)
1

>  <s_j_Task> (1)
Single Point

>  <s_j_QM_Method> (1)
DFT(b3lyp-d3)

>  <s_j_QM_Basis> (1)
cc-pvtz(-f)

>  <i_j_Number_of_canonical_orbitals> (1)
383

>  <i_j_Geometry_convergence_category> (1)
1

>  <r_j_Gas_Phase_Energy> (1)
-355.166347391807

>  <r_j_Final_Energy> (1)
-355.166347391807

>  <r_j_HOMO> (1)
-0.301508133758863

>  <r_j_LUMO> (1)
0.0194078029491759

>  <r_j_Polarizability> (1)
109.758574792429

>  <r_j_QM_Dipole_(debye)> (1)
0.111509698465566

>  <r_j_QM_Dipole_X_(debye)> (1)
0.0173145727930551

>  <r_j_QM_Dipole_Y_(debye)> (1)
-0.0928645679314583

>  <r_j_QM_Dipole_Z_(debye)> (1)
-0.059251923544971

>  <r_j_Lowest_Frequency_(cm-1)> (1)
97.898513714985

>  <r_j_Highest_Frequency_(cm-1)> (1)
3069.76559457475

>  <r_j_2nd_Lowest_Frequency_(cm-1)> (1)
120.973543153014

>  <i_j_Num_Negative_Frequencies> (1)
0

>  <r_j_Zero_Point_Energy_(kcal/mol)> (1)
171.477037347798

>  <r_j_Entropy_(cal/mol/K)_298.15K_1.00E+00atm> (1)
99.3484587120089

>  <r_j_Enthalpy_(kcal/mol)_298.15K_1.00E+00atm> (1)
7.63160518037255

>  <r_j_Free_Energy_(kcal/mol)_298.15K_1.00E+00atm> (1)
-21.9891377846129

>  <r_j_Internal_Energy_(kcal/mol)_298.15K_1.00E+00atm> (1)
7.03911959154527

>  <r_j_Heat_Capacity_(cal/mol/K)_298.15K_1.00E+00atm> (1)
44.6717442518243

>  <r_j_ln(Q)_298.15K_1.00E+00atm> (1)
37.1133715304987

>  <r_j_Total_Internal_Energy_(au)_298.15K_1.00E+00atm> (1)
-354.881863785624

>  <r_j_Total_Enthalpy_(au)_298.15K_1.00E+00atm> (1)
-354.880919599732

>  <r_j_Total_Free_Energy_(au)_298.15K_1.00E+00atm> (1)
-354.928123258611

>  <r_lp_tautomer_probability> (1)
1

>  <r_epik_Ionization_Penalty> (1)
  0.0000

>  <r_epik_Ionization_Penalty_Charging> (1)
  0.0000

>  <r_epik_Ionization_Penalty_Neutral> (1)
  0.0000

>  <r_epik_State_Penalty> (1)
  0.0000

>  <r_epik_Charging_Adjusted_Penalty> (1)
0

>  <i_epik_Tot_Q> (1)
0

>  <i_epik_Tot_abs_Q> (1)
0

>  <s_lp_Force_Field> (1)
S-OPLS

>  <r_lp_Energy> (1)
10.9837

>  <b_lp_Chiralities_Consistent> (1)
1

$$$$
