28026_2,2-Dimethyl-3-ethylpentane
                    3D
 Schrodinger Suite 2021-3.
 29 28  0  0  1  0            999 V2000
   -0.7242    1.1780    0.6398 C   0  0  0  0  0  0
   -0.1174    0.1503   -0.3227 C   0  0  0  0  0  0
    1.4357    0.0671   -0.2443 C   0  0  0  0  0  0
    2.0818    0.7841   -1.4505 C   0  0  0  0  0  0
    1.7209    2.2709   -1.5595 C   0  0  0  0  0  0
    1.9687   -1.3916   -0.0206 C   0  0  0  0  0  0
    1.5473   -2.3395   -1.1605 C   0  0  0  0  0  0
    1.4232   -1.9306    1.3198 C   0  0  0  0  0  0
    3.5092   -1.3963    0.0805 C   0  0  0  0  0  0
   -1.8134    1.2309    0.5362 H   0  0  0  0  0  0
   -0.3217    2.1806    0.4646 H   0  0  0  0  0  0
   -0.4998    0.9127    1.6792 H   0  0  0  0  0  0
   -0.5695   -0.8228   -0.1095 H   0  0  0  0  0  0
   -0.4214    0.3868   -1.3502 H   0  0  0  0  0  0
    1.7491    0.6258    0.6520 H   0  0  0  0  0  0
    3.1717    0.7060   -1.3884 H   0  0  0  0  0  0
    1.7886    0.2743   -2.3778 H   0  0  0  0  0  0
    2.2502    2.7396   -2.3957 H   0  0  0  0  0  0
    1.9982    2.8100   -0.6461 H   0  0  0  0  0  0
    0.6499    2.4256   -1.7227 H   0  0  0  0  0  0
    1.9255   -3.3512   -0.9748 H   0  0  0  0  0  0
    1.9478   -2.0108   -2.1248 H   0  0  0  0  0  0
    0.4591   -2.4080   -1.2545 H   0  0  0  0  0  0
    0.3308   -1.9845    1.3371 H   0  0  0  0  0  0
    1.7393   -1.2937    2.1540 H   0  0  0  0  0  0
    1.8016   -2.9411    1.5100 H   0  0  0  0  0  0
    3.8655   -2.3813    0.4018 H   0  0  0  0  0  0
    3.8603   -0.6602    0.8132 H   0  0  0  0  0  0
    3.9897   -1.1757   -0.8768 H   0  0  0  0  0  0
  1  2  1  0  0  0
  1 10  1  0  0  0
  1 11  1  0  0  0
  1 12  1  0  0  0
  2  3  1  0  0  0
  2 13  1  0  0  0
  2 14  1  0  0  0
  3  4  1  0  0  0
  3  6  1  0  0  0
  3 15  1  0  0  0
  4  5  1  0  0  0
  4 16  1  0  0  0
  4 17  1  0  0  0
  5 18  1  0  0  0
  5 19  1  0  0  0
  5 20  1  0  0  0
  6  7  1  0  0  0
  6  8  1  0  0  0
  6  9  1  0  0  0
  7 21  1  0  0  0
  7 22  1  0  0  0
  7 23  1  0  0  0
  8 24  1  0  0  0
  8 25  1  0  0  0
  8 26  1  0  0  0
  9 27  1  0  0  0
  9 28  1  0  0  0
  9 29  1  0  0  0
M  END
>  <i_m_Spin_multiplicity> (1)
1

>  <s_j_Task> (1)
Single Point

>  <s_j_QM_Method> (1)
DFT(b3lyp-d3)

>  <s_j_QM_Basis> (1)
cc-pvtz(-f)

>  <i_j_Number_of_canonical_orbitals> (1)
383

>  <i_j_Geometry_convergence_category> (1)
3

>  <r_j_Gas_Phase_Energy> (1)
-355.164243496716

>  <r_j_Final_Energy> (1)
-355.164243496716

>  <r_j_HOMO> (1)
-0.295952917566113

>  <r_j_LUMO> (1)
0.0226948641975167

>  <r_j_Polarizability> (1)
109.166232401204

>  <r_j_QM_Dipole_(debye)> (1)
0.0802472399634612

>  <r_j_QM_Dipole_X_(debye)> (1)
0.0371674818735006

>  <r_j_QM_Dipole_Y_(debye)> (1)
-0.0309175026384385

>  <r_j_QM_Dipole_Z_(debye)> (1)
-0.0640492454564336

>  <r_j_Lowest_Frequency_(cm-1)> (1)
88.7449106854938

>  <r_j_Highest_Frequency_(cm-1)> (1)
3060.47117311098

>  <r_j_2nd_Lowest_Frequency_(cm-1)> (1)
114.480205179297

>  <i_j_Num_Negative_Frequencies> (1)
0

>  <r_j_Zero_Point_Energy_(kcal/mol)> (1)
171.554320105812

>  <r_j_Entropy_(cal/mol/K)_298.15K_1.00E+00atm> (1)
99.2055325567996

>  <r_j_Enthalpy_(kcal/mol)_298.15K_1.00E+00atm> (1)
7.63055797412415

>  <r_j_Free_Energy_(kcal/mol)_298.15K_1.00E+00atm> (1)
-21.9475715576856

>  <r_j_Internal_Energy_(kcal/mol)_298.15K_1.00E+00atm> (1)
7.03807238529687

>  <r_j_Heat_Capacity_(cal/mol/K)_298.15K_1.00E+00atm> (1)
44.6599569535082

>  <r_j_ln(Q)_298.15K_1.00E+00atm> (1)
37.0432158546289

>  <r_j_Total_Internal_Energy_(au)_298.15K_1.00E+00atm> (1)
-354.879638401448

>  <r_j_Total_Enthalpy_(au)_298.15K_1.00E+00atm> (1)
-354.878694215555

>  <r_j_Total_Free_Energy_(au)_298.15K_1.00E+00atm> (1)
-354.925829965605

>  <r_lp_tautomer_probability> (1)
1

>  <r_epik_Ionization_Penalty> (1)
  0.0000

>  <r_epik_Ionization_Penalty_Charging> (1)
  0.0000

>  <r_epik_Ionization_Penalty_Neutral> (1)
  0.0000

>  <r_epik_State_Penalty> (1)
  0.0000

>  <r_epik_Charging_Adjusted_Penalty> (1)
0

>  <i_epik_Tot_Q> (1)
0

>  <i_epik_Tot_abs_Q> (1)
0

>  <s_lp_Force_Field> (1)
S-OPLS

>  <r_lp_Energy> (1)
13.8701

>  <b_lp_Chiralities_Consistent> (1)
1

$$$$
