280_Carbon dioxide
                    3D
 Schrodinger Suite 2021-3.
  3  2  0  0  1  0            999 V2000
    0.0000    0.0000    1.1693 O   0  0  0  0  0  0
    0.0000    0.0000   -1.1693 O   0  0  0  0  0  0
    0.0000    0.0000    0.0000 C   0  0  0  0  0  0
  1  3  2  0  0  0
  2  3  2  0  0  0
M  END
>  <i_m_Spin_multiplicity> (1)
1

>  <s_j_Task> (1)
Single Point

>  <s_j_QM_Method> (1)
DFT(b3lyp-d3)

>  <s_j_QM_Basis> (1)
cc-pvtz(-f)

>  <i_j_Number_of_canonical_orbitals> (1)
69

>  <r_j_Gas_Phase_Energy> (1)
-188.655049091956

>  <r_j_Final_Energy> (1)
-188.655049091956

>  <r_j_Polarizability> (1)
14.5922987902852

>  <r_j_QM_Dipole_(debye)> (1)
3.21239355651972e-06

>  <r_j_QM_Dipole_X_(debye)> (1)
-8.64227639073514e-07

>  <r_j_QM_Dipole_Y_(debye)> (1)
1.40154604560509e-07

>  <r_j_QM_Dipole_Z_(debye)> (1)
3.09078301351798e-06

>  <r_j_Zero_Point_Energy_(kcal/mol)> (1)
7.24419615778747

>  <r_j_Entropy_(cal/mol/K)_298.15K_1.00E+00atm> (1)
51.008186582365

>  <r_j_Enthalpy_(kcal/mol)_298.15K_1.00E+00atm> (1)
2.22086735648242

>  <r_j_Free_Energy_(kcal/mol)_298.15K_1.00E+00atm> (1)
-12.9872234730497

>  <r_j_Internal_Energy_(kcal/mol)_298.15K_1.00E+00atm> (1)
1.62838176765515

>  <r_j_Heat_Capacity_(cal/mol/K)_298.15K_1.00E+00atm> (1)
6.76065816104645

>  <r_j_ln(Q)_298.15K_1.00E+00atm> (1)
21.9198976615714

>  <r_j_Total_Internal_Energy_(au)_298.15K_1.00E+00atm> (1)
-188.640909738927

>  <r_j_Total_Enthalpy_(au)_298.15K_1.00E+00atm> (1)
-188.639965553035

>  <r_j_Total_Free_Energy_(au)_298.15K_1.00E+00atm> (1)
-188.664201188601

>  <r_j_HOMO> (1)
-0.379871230868299

>  <r_j_LUMO> (1)
0.0203795663366514

>  <r_j_Lowest_Frequency_(cm-1)> (1)
701.21253913947

>  <r_j_Highest_Frequency_(cm-1)> (1)
2338.65349168716

>  <r_j_2nd_Lowest_Frequency_(cm-1)> (1)
701.213025916905

>  <i_j_Num_Negative_Frequencies> (1)
0

>  <i_j_Geometry_convergence_category> (1)
0

$$$$
