28206_2-Nitrophenanthrene
                    3D
 Schrodinger Suite 2021-3.
 26 28  0  0  1  0            999 V2000
   -7.0951   -0.1482   -0.0001 C   0  0  0  0  0  0
   -6.4423    1.0982    0.0000 C   0  0  0  0  0  0
   -5.0623    1.1636    0.0000 C   0  0  0  0  0  0
   -4.2699   -0.0086    0.0001 C   0  0  0  0  0  0
   -4.9375   -1.2692    0.0000 C   0  0  0  0  0  0
   -6.3505   -1.3101    0.0000 C   0  0  0  0  0  0
   -4.1726   -2.4836    0.0000 C   0  0  0  0  0  0
   -2.8146   -2.4608    0.0001 C   0  0  0  0  0  0
   -2.0995   -1.2169    0.0001 C   0  0  0  0  0  0
   -2.8158    0.0187    0.0001 C   0  0  0  0  0  0
   -2.0676    1.2219    0.0001 C   0  0  0  0  0  0
   -0.6892    1.2213    0.0000 C   0  0  0  0  0  0
   -0.0134   -0.0092    0.0000 C   0  0  0  0  0  0
   -0.6898   -1.2100    0.0000 C   0  0  0  0  0  0
    1.4566   -0.0150   -0.0001 N   0  3  1  0  0  0
    2.0280   -1.1060   -0.0001 O   0  0  0  0  0  0
    2.0312    1.0747   -0.0001 O   0  5  0  0  0  0
   -8.1798   -0.1932   -0.0001 H   0  0  0  0  0  0
   -7.0250    2.0144    0.0000 H   0  0  0  0  0  0
   -4.5892    2.1385    0.0001 H   0  0  0  0  0  0
   -6.8438   -2.2783   -0.0001 H   0  0  0  0  0  0
   -4.7074   -3.4288    0.0000 H   0  0  0  0  0  0
   -2.2429   -3.3838    0.0001 H   0  0  0  0  0  0
   -2.5774    2.1774    0.0001 H   0  0  0  0  0  0
   -0.1184    2.1408    0.0000 H   0  0  0  0  0  0
   -0.1319   -2.1387    0.0000 H   0  0  0  0  0  0
  1  6  1  0  0  0
  1  2  2  0  0  0
  1 18  1  0  0  0
  2  3  1  0  0  0
  2 19  1  0  0  0
  3  4  2  0  0  0
  3 20  1  0  0  0
  4 10  1  0  0  0
  4  5  1  0  0  0
  5  6  2  0  0  0
  5  7  1  0  0  0
  6 21  1  0  0  0
  7  8  2  0  0  0
  7 22  1  0  0  0
  8  9  1  0  0  0
  8 23  1  0  0  0
  9 14  1  0  0  0
  9 10  2  0  0  0
 10 11  1  0  0  0
 11 12  2  0  0  0
 11 24  1  0  0  0
 12 13  1  0  0  0
 12 25  1  0  0  0
 13 14  2  0  0  0
 13 15  1  0  0  0
 14 26  1  0  0  0
 15 16  2  0  0  0
 15 17  1  0  0  0
M  END
>  <i_m_Spin_multiplicity> (1)
1

>  <s_j_Task> (1)
Single Point

>  <s_j_QM_Method> (1)
DFT(b3lyp-d3)

>  <s_j_QM_Basis> (1)
cc-pvtz(-f)

>  <i_j_Number_of_canonical_orbitals> (1)
458

>  <i_j_Geometry_convergence_category> (1)
0

>  <r_j_Gas_Phase_Energy> (1)
-744.290392577105

>  <r_j_Final_Energy> (1)
-744.290392577105

>  <r_j_HOMO> (1)
-0.243266557252348

>  <r_j_LUMO> (1)
-0.102321120999706

>  <r_j_Polarizability> (1)
187.615124636498

>  <r_j_QM_Dipole_(debye)> (1)
5.75103028492434

>  <r_j_QM_Dipole_X_(debye)> (1)
-5.74692336783

>  <r_j_QM_Dipole_Y_(debye)> (1)
-0.217304220647461

>  <r_j_QM_Dipole_Z_(debye)> (1)
0.000134518570749501

>  <r_j_Lowest_Frequency_(cm-1)> (1)
70.0975299765042

>  <r_j_Highest_Frequency_(cm-1)> (1)
3188.94192642914

>  <r_j_2nd_Lowest_Frequency_(cm-1)> (1)
89.9649188780556

>  <i_j_Num_Negative_Frequencies> (1)
0

>  <r_j_Zero_Point_Energy_(kcal/mol)> (1)
123.027685679272

>  <r_j_Entropy_(cal/mol/K)_298.15K_1.00E+00atm> (1)
106.018991605965

>  <r_j_Enthalpy_(kcal/mol)_298.15K_1.00E+00atm> (1)
7.90768870311781

>  <r_j_Free_Energy_(kcal/mol)_298.15K_1.00E+00atm> (1)
-23.7018736442006

>  <r_j_Internal_Energy_(kcal/mol)_298.15K_1.00E+00atm> (1)
7.31520311429054

>  <r_j_Heat_Capacity_(cal/mol/K)_298.15K_1.00E+00atm> (1)
48.5664196427295

>  <r_j_ln(Q)_298.15K_1.00E+00atm> (1)
40.0041352754494

>  <r_j_Total_Internal_Energy_(au)_298.15K_1.00E+00atm> (1)
-744.082677960792

>  <r_j_Total_Enthalpy_(au)_298.15K_1.00E+00atm> (1)
-744.0817337749

>  <r_j_Total_Free_Energy_(au)_298.15K_1.00E+00atm> (1)
-744.132106819226

>  <r_lp_tautomer_probability> (1)
1

>  <r_epik_Ionization_Penalty> (1)
  0.0000

>  <r_epik_Ionization_Penalty_Charging> (1)
  0.0000

>  <r_epik_Ionization_Penalty_Neutral> (1)
  0.0000

>  <r_epik_State_Penalty> (1)
  0.0000

>  <r_epik_Charging_Adjusted_Penalty> (1)
0

>  <i_epik_Tot_Q> (1)
0

>  <i_epik_Tot_abs_Q> (1)
2

>  <s_lp_Force_Field> (1)
S-OPLS

>  <r_lp_Energy> (1)
35.297232

>  <b_lp_Chiralities_Consistent> (1)
1

$$$$
