28455_4-methylnonane
                    3D
 Schrodinger Suite 2021-3.
 32 31  0  0  1  0            999 V2000
   -4.2037    2.9802    0.0715 C   0  0  0  0  0  0
   -2.6743    2.9467   -0.0022 C   0  0  0  0  0  0
   -2.1047    1.5235   -0.0253 C   0  0  0  0  0  0
   -0.5736    1.4827   -0.0931 C   0  0  0  0  0  0
   -0.0123    0.0552   -0.1266 C   0  0  0  0  0  0
    1.5240   -0.0448   -0.0475 C   0  0  0  0  0  0
    2.2041    0.6741   -1.2231 C   0  0  0  0  0  0
    2.0022   -1.5094    0.0173 C   0  0  0  0  0  0
    1.5684   -2.2940    1.2626 C   0  0  0  0  0  0
    2.1868   -3.6948    1.3179 C   0  0  0  0  0  0
   -4.5844    4.0069    0.0873 H   0  0  0  0  0  0
   -4.5656    2.4762    0.9752 H   0  0  0  0  0  0
   -4.6509    2.4715   -0.7903 H   0  0  0  0  0  0
   -2.3369    3.4853   -0.8983 H   0  0  0  0  0  0
   -2.2523    3.4901    0.8544 H   0  0  0  0  0  0
   -2.4457    0.9817    0.8688 H   0  0  0  0  0  0
   -2.5221    0.9795   -0.8851 H   0  0  0  0  0  0
   -0.2439    2.0406   -0.9786 H   0  0  0  0  0  0
   -0.1581    2.0152    0.7749 H   0  0  0  0  0  0
   -0.4529   -0.5033    0.7085 H   0  0  0  0  0  0
   -0.3538   -0.4495   -1.0431 H   0  0  0  0  0  0
    1.8433    0.4505    0.8833 H   0  0  0  0  0  0
    1.8814    0.2423   -2.1789 H   0  0  0  0  0  0
    3.2937    0.5765   -1.1659 H   0  0  0  0  0  0
    1.9699    1.7422   -1.2443 H   0  0  0  0  0  0
    1.6584   -2.0384   -0.8846 H   0  0  0  0  0  0
    3.1003   -1.5183   -0.0310 H   0  0  0  0  0  0
    1.8538   -1.7297    2.1612 H   0  0  0  0  0  0
    0.4760   -2.3834    1.2925 H   0  0  0  0  0  0
    1.8660   -4.2416    2.2107 H   0  0  0  0  0  0
    3.2816   -3.6432    1.3327 H   0  0  0  0  0  0
    1.8975   -4.2872    0.4421 H   0  0  0  0  0  0
  1  2  1  0  0  0
  1 11  1  0  0  0
  1 12  1  0  0  0
  1 13  1  0  0  0
  2  3  1  0  0  0
  2 14  1  0  0  0
  2 15  1  0  0  0
  3  4  1  0  0  0
  3 16  1  0  0  0
  3 17  1  0  0  0
  4  5  1  0  0  0
  4 18  1  0  0  0
  4 19  1  0  0  0
  5  6  1  0  0  0
  5 20  1  0  0  0
  5 21  1  0  0  0
  6  7  1  0  0  0
  6  8  1  0  0  0
  6 22  1  0  0  0
  7 23  1  0  0  0
  7 24  1  0  0  0
  7 25  1  0  0  0
  8  9  1  0  0  0
  8 26  1  0  0  0
  8 27  1  0  0  0
  9 10  1  0  0  0
  9 28  1  0  0  0
  9 29  1  0  0  0
 10 30  1  0  0  0
 10 31  1  0  0  0
 10 32  1  0  0  0
M  END
>  <i_m_Spin_multiplicity> (1)
1

>  <s_j_Task> (1)
Single Point

>  <s_j_QM_Method> (1)
DFT(b3lyp-d3)

>  <s_j_QM_Basis> (1)
cc-pvtz(-f)

>  <i_j_Number_of_canonical_orbitals> (1)
426

>  <i_j_Geometry_convergence_category> (1)
0

>  <r_j_Gas_Phase_Energy> (1)
-394.499409736377

>  <r_j_Final_Energy> (1)
-394.499409736377

>  <r_j_HOMO> (1)
-0.29656746492505

>  <r_j_LUMO> (1)
0.0193113525467233

>  <r_j_Polarizability> (1)
124.728043784229

>  <r_j_QM_Dipole_(debye)> (1)
0.120306305485046

>  <r_j_QM_Dipole_X_(debye)> (1)
0.00384266451732028

>  <r_j_QM_Dipole_Y_(debye)> (1)
0.0702322998287335

>  <r_j_QM_Dipole_Z_(debye)> (1)
0.0976025877199747

>  <r_j_Lowest_Frequency_(cm-1)> (1)
70.623827124901

>  <r_j_Highest_Frequency_(cm-1)> (1)
3056.65188896856

>  <r_j_2nd_Lowest_Frequency_(cm-1)> (1)
93.0645788163142

>  <i_j_Num_Negative_Frequencies> (1)
0

>  <r_j_Zero_Point_Energy_(kcal/mol)> (1)
189.649027069396

>  <r_j_Entropy_(cal/mol/K)_298.15K_1.00E+00atm> (1)
108.959260467065

>  <r_j_Enthalpy_(kcal/mol)_298.15K_1.00E+00atm> (1)
8.58458345939614

>  <r_j_Free_Energy_(kcal/mol)_298.15K_1.00E+00atm> (1)
-23.9016200488592

>  <r_j_Internal_Energy_(kcal/mol)_298.15K_1.00E+00atm> (1)
7.99209787056887

>  <r_j_Heat_Capacity_(cal/mol/K)_298.15K_1.00E+00atm> (1)
48.1993075534364

>  <r_j_ln(Q)_298.15K_1.00E+00atm> (1)
40.3412682090183

>  <r_j_Total_Internal_Energy_(au)_298.15K_1.00E+00atm> (1)
-394.184448553496

>  <r_j_Total_Enthalpy_(au)_298.15K_1.00E+00atm> (1)
-394.183504367604

>  <r_j_Total_Free_Energy_(au)_298.15K_1.00E+00atm> (1)
-394.235274428553

>  <r_lp_tautomer_probability> (1)
1

>  <r_epik_Ionization_Penalty> (1)
  0.0000

>  <r_epik_Ionization_Penalty_Charging> (1)
  0.0000

>  <r_epik_Ionization_Penalty_Neutral> (1)
  0.0000

>  <r_epik_State_Penalty> (1)
  0.0000

>  <r_epik_Charging_Adjusted_Penalty> (1)
0

>  <i_epik_Tot_Q> (1)
0

>  <i_epik_Tot_abs_Q> (1)
0

>  <s_lp_Force_Field> (1)
S-OPLS

>  <r_lp_Energy> (1)
5.26419

>  <b_lp_Chiralities_Consistent> (1)
1

$$$$
