28468_3,7-dimethyl decane
                    3D
 Schrodinger Suite 2021-3.
 38 37  0  0  1  0            999 V2000
   -0.0683    4.6539    2.3237 C   0  0  0  0  0  0
   -0.6930    3.7751    1.2354 C   0  0  0  0  0  0
   -0.1647    2.3342    1.2668 C   0  0  0  0  0  0
   -0.6367    1.4383    0.1049 C   0  0  0  0  0  0
   -2.1680    1.3154    0.0608 C   0  0  0  0  0  0
   -0.0014    0.0345    0.1644 C   0  0  0  0  0  0
    1.5295   -0.0034    0.0635 C   0  0  0  0  0  0
    2.0709   -1.4325   -0.0814 C   0  0  0  0  0  0
    3.6050   -1.5608   -0.0055 C   0  0  0  0  0  0
    4.3046   -0.7124   -1.0787 C   0  0  0  0  0  0
    4.0645   -3.0291   -0.1174 C   0  0  0  0  0  0
    3.5704   -3.9534    1.0009 C   0  0  0  0  0  0
   -0.4614    5.6755    2.2915 H   0  0  0  0  0  0
    1.0205    4.7110    2.2092 H   0  0  0  0  0  0
   -0.2730    4.2492    3.3218 H   0  0  0  0  0  0
   -1.7832    3.7797    1.3524 H   0  0  0  0  0  0
   -0.4896    4.2122    0.2478 H   0  0  0  0  0  0
    0.9319    2.3746    1.2666 H   0  0  0  0  0  0
   -0.4509    1.8624    2.2194 H   0  0  0  0  0  0
   -0.3072    1.9114   -0.8339 H   0  0  0  0  0  0
   -2.5493    0.8978    1.0012 H   0  0  0  0  0  0
   -2.4853    0.6507   -0.7502 H   0  0  0  0  0  0
   -2.6553    2.2820   -0.0961 H   0  0  0  0  0  0
   -0.3182   -0.4632    1.0933 H   0  0  0  0  0  0
   -0.4188   -0.5677   -0.6550 H   0  0  0  0  0  0
    1.8438    0.6079   -0.7923 H   0  0  0  0  0  0
    1.9798    0.4582    0.9519 H   0  0  0  0  0  0
    1.6191   -2.0503    0.7048 H   0  0  0  0  0  0
    1.7257   -1.8565   -1.0367 H   0  0  0  0  0  0
    3.9220   -1.1880    0.9818 H   0  0  0  0  0  0
    3.9771   -1.0118   -2.0823 H   0  0  0  0  0  0
    5.3918   -0.8392   -1.0327 H   0  0  0  0  0  0
    4.0923    0.3544   -0.9636 H   0  0  0  0  0  0
    3.7456   -3.4262   -1.0921 H   0  0  0  0  0  0
    5.1624   -3.0468   -0.1300 H   0  0  0  0  0  0
    4.0168   -4.9491    0.9111 H   0  0  0  0  0  0
    2.4836   -4.0805    0.9812 H   0  0  0  0  0  0
    3.8400   -3.5558    1.9865 H   0  0  0  0  0  0
  1  2  1  0  0  0
  1 13  1  0  0  0
  1 14  1  0  0  0
  1 15  1  0  0  0
  2  3  1  0  0  0
  2 16  1  0  0  0
  2 17  1  0  0  0
  3  4  1  0  0  0
  3 18  1  0  0  0
  3 19  1  0  0  0
  4  5  1  0  0  0
  4  6  1  0  0  0
  4 20  1  0  0  0
  5 21  1  0  0  0
  5 22  1  0  0  0
  5 23  1  0  0  0
  6  7  1  0  0  0
  6 24  1  0  0  0
  6 25  1  0  0  0
  7  8  1  0  0  0
  7 26  1  0  0  0
  7 27  1  0  0  0
  8  9  1  0  0  0
  8 28  1  0  0  0
  8 29  1  0  0  0
  9 10  1  0  0  0
  9 11  1  0  0  0
  9 30  1  0  0  0
 10 31  1  0  0  0
 10 32  1  0  0  0
 10 33  1  0  0  0
 11 12  1  0  0  0
 11 34  1  0  0  0
 11 35  1  0  0  0
 12 36  1  0  0  0
 12 37  1  0  0  0
 12 38  1  0  0  0
M  END
>  <i_m_Spin_multiplicity> (1)
1

>  <s_j_Task> (1)
Single Point

>  <s_j_QM_Method> (1)
DFT(b3lyp-d3)

>  <s_j_QM_Basis> (1)
cc-pvtz(-f)

>  <i_j_Number_of_canonical_orbitals> (1)
507

>  <i_j_Geometry_convergence_category> (1)
0

>  <r_j_Gas_Phase_Energy> (1)
-473.157728286888

>  <r_j_Final_Energy> (1)
-473.157728286888

>  <r_j_HOMO> (1)
-0.295733924454212

>  <r_j_LUMO> (1)
0.0187761654655061

>  <r_j_Polarizability> (1)
148.319615170079

>  <r_j_QM_Dipole_(debye)> (1)
0.0684956303445708

>  <r_j_QM_Dipole_X_(debye)> (1)
0.0506597746147925

>  <r_j_QM_Dipole_Y_(debye)> (1)
0.0305246219480818

>  <r_j_QM_Dipole_Z_(debye)> (1)
-0.0345468676902147

>  <r_j_Lowest_Frequency_(cm-1)> (1)
51.5081080164606

>  <r_j_Highest_Frequency_(cm-1)> (1)
3055.84196075373

>  <r_j_2nd_Lowest_Frequency_(cm-1)> (1)
69.0398985940536

>  <i_j_Num_Negative_Frequencies> (1)
0

>  <r_j_Zero_Point_Energy_(kcal/mol)> (1)
225.246378689163

>  <r_j_Entropy_(cal/mol/K)_298.15K_1.00E+00atm> (1)
119.371135105798

>  <r_j_Enthalpy_(kcal/mol)_298.15K_1.00E+00atm> (1)
10.0632163571044

>  <r_j_Free_Energy_(kcal/mol)_298.15K_1.00E+00atm> (1)
-25.5272875746892

>  <r_j_Internal_Energy_(kcal/mol)_298.15K_1.00E+00atm> (1)
9.47073076827715

>  <r_j_Heat_Capacity_(cal/mol/K)_298.15K_1.00E+00atm> (1)
58.2046227911878

>  <r_j_ln(Q)_298.15K_1.00E+00atm> (1)
43.0850776053747

>  <r_j_Total_Internal_Energy_(au)_298.15K_1.00E+00atm> (1)
-472.783682761396

>  <r_j_Total_Enthalpy_(au)_298.15K_1.00E+00atm> (1)
-472.782738575503

>  <r_j_Total_Free_Energy_(au)_298.15K_1.00E+00atm> (1)
-472.839455654103

>  <r_lp_tautomer_probability> (1)
1

>  <r_epik_Ionization_Penalty> (1)
  0.0000

>  <r_epik_Ionization_Penalty_Charging> (1)
  0.0000

>  <r_epik_Ionization_Penalty_Neutral> (1)
  0.0000

>  <r_epik_State_Penalty> (1)
  0.0000

>  <r_epik_Charging_Adjusted_Penalty> (1)
0

>  <i_epik_Tot_Q> (1)
0

>  <i_epik_Tot_abs_Q> (1)
0

>  <s_lp_Force_Field> (1)
S-OPLS

>  <r_lp_Energy> (1)
7.45104

>  <b_lp_Chiralities_Consistent> (1)
1

$$$$
