28809_Todomatuic acid
                    3D
 Schrodinger Suite 2021-3.
 41 41  0  0  1  0            999 V2000
   -1.6773   -0.8736   -2.2702 C   0  0  0  0  0  0
   -0.5770   -1.6438   -1.5279 C   0  0  0  0  0  0
   -0.7333   -3.1571   -1.7259 C   0  0  0  0  0  0
   -0.5651   -1.2994   -0.0170 C   0  0  0  0  0  0
   -0.2336    0.1696    0.2185 C   0  0  0  0  0  0
   -1.1190    0.9985    0.3663 O   0  0  0  0  0  0
    1.2350    0.5321    0.2622 C   0  0  0  0  0  0
    1.8036    0.3506    1.7021 C   0  0  0  0  0  0
    1.3052    1.4864    2.6075 C   0  0  0  0  0  0
    3.3422    0.1806    1.6684 C   0  0  0  0  0  0
    4.1245    1.4139    1.1853 C   0  0  0  0  0  0
    5.5926    1.0433    0.9268 C   0  0  0  0  0  0
    6.1952    0.2287    2.0468 C   0  0  0  0  0  0
    5.4314   -0.3504    2.9825 C   0  0  0  0  0  0
    3.9226   -0.2902    3.0142 C   0  0  0  0  0  0
    7.7443    0.0876    2.0675 C   0  0  0  0  0  0
    8.3311    0.7133    1.1440 O   0  0  0  0  0  0
    8.2247   -0.6230    2.9844 O   0  5  0  0  0  0
   -2.6667   -1.1662   -1.8982 H   0  0  0  0  0  0
   -1.6440   -1.0867   -3.3443 H   0  0  0  0  0  0
   -1.5823    0.2060   -2.1281 H   0  0  0  0  0  0
    0.3947   -1.3475   -1.9484 H   0  0  0  0  0  0
   -1.6822   -3.5061   -1.3004 H   0  0  0  0  0  0
    0.0768   -3.7100   -1.2387 H   0  0  0  0  0  0
   -0.7289   -3.4182   -2.7901 H   0  0  0  0  0  0
   -1.5522   -1.5044    0.4119 H   0  0  0  0  0  0
    0.1751   -1.9312    0.4888 H   0  0  0  0  0  0
    1.7973   -0.1093   -0.4271 H   0  0  0  0  0  0
    1.3499    1.5711   -0.0583 H   0  0  0  0  0  0
    1.3993   -0.5946    2.0994 H   0  0  0  0  0  0
    1.7200    2.4470    2.2854 H   0  0  0  0  0  0
    1.6015    1.3246    3.6474 H   0  0  0  0  0  0
    0.2145    1.5684    2.5679 H   0  0  0  0  0  0
    3.5457   -0.6261    0.9465 H   0  0  0  0  0  0
    3.6702    1.8404    0.2800 H   0  0  0  0  0  0
    4.0763    2.1926    1.9592 H   0  0  0  0  0  0
    5.6773    0.4788   -0.0143 H   0  0  0  0  0  0
    6.2190    1.9277    0.7744 H   0  0  0  0  0  0
    5.9491   -0.9037    3.7637 H   0  0  0  0  0  0
    3.5882    0.3799    3.8238 H   0  0  0  0  0  0
    3.5023   -1.2777    3.2652 H   0  0  0  0  0  0
  1  2  1  0  0  0
  1 19  1  0  0  0
  1 20  1  0  0  0
  1 21  1  0  0  0
  2  3  1  0  0  0
  2  4  1  0  0  0
  2 22  1  0  0  0
  3 23  1  0  0  0
  3 24  1  0  0  0
  3 25  1  0  0  0
  4  5  1  0  0  0
  4 26  1  0  0  0
  4 27  1  0  0  0
  5  6  2  0  0  0
  5  7  1  0  0  0
  7  8  1  0  0  0
  7 28  1  0  0  0
  7 29  1  0  0  0
  8  9  1  0  0  0
  8 10  1  0  0  0
  8 30  1  0  0  0
  9 31  1  0  0  0
  9 32  1  0  0  0
  9 33  1  0  0  0
 10 15  1  0  0  0
 10 11  1  0  0  0
 10 34  1  0  0  0
 11 12  1  0  0  0
 11 35  1  0  0  0
 11 36  1  0  0  0
 12 13  1  0  0  0
 12 37  1  0  0  0
 12 38  1  0  0  0
 13 14  2  0  0  0
 13 16  1  0  0  0
 14 15  1  0  0  0
 14 39  1  0  0  0
 15 40  1  0  0  0
 15 41  1  0  0  0
 16 17  2  0  0  0
 16 18  1  0  0  0
M  END
>  <i_m_Spin_multiplicity> (1)
1

>  <s_j_Task> (1)
Single Point

>  <s_j_QM_Method> (1)
DFT(b3lyp-d3)

>  <s_j_QM_Basis> (1)
cc-pvtz(-f)

>  <i_j_Number_of_canonical_orbitals> (1)
615

>  <i_j_Geometry_convergence_category> (1)
3

>  <r_j_Gas_Phase_Energy> (1)
-811.498122015258

>  <r_j_Final_Energy> (1)
-811.498122015258

>  <r_j_HOMO> (1)
-0.0545242671269858

>  <r_j_LUMO> (1)
0.0428177973954831

>  <r_j_Polarizability> (1)
187.994284140004

>  <r_j_QM_Dipole_(debye)> (1)
20.9369193082799

>  <r_j_QM_Dipole_X_(debye)> (1)
-20.113998667788

>  <r_j_QM_Dipole_Y_(debye)> (1)
-2.30528167130709

>  <r_j_QM_Dipole_Z_(debye)> (1)
-5.33547787265416

>  <r_j_Lowest_Frequency_(cm-1)> (1)
38.1648821794607

>  <r_j_Highest_Frequency_(cm-1)> (1)
3107.08937973442

>  <r_j_2nd_Lowest_Frequency_(cm-1)> (1)
64.4073105897727

>  <i_j_Num_Negative_Frequencies> (1)
0

>  <r_j_Zero_Point_Energy_(kcal/mol)> (1)
222.673161453722

>  <r_j_Entropy_(cal/mol/K)_298.15K_1.00E+00atm> (1)
134.594337824958

>  <r_j_Enthalpy_(kcal/mol)_298.15K_1.00E+00atm> (1)
12.0121676919787

>  <r_j_Free_Energy_(kcal/mol)_298.15K_1.00E+00atm> (1)
-28.1171341305325

>  <r_j_Internal_Energy_(kcal/mol)_298.15K_1.00E+00atm> (1)
11.4196821031514

>  <r_j_Heat_Capacity_(cal/mol/K)_298.15K_1.00E+00atm> (1)
71.401272574407

>  <r_j_ln(Q)_298.15K_1.00E+00atm> (1)
47.4562329628736

>  <r_j_Total_Internal_Energy_(au)_298.15K_1.00E+00atm> (1)
-811.125071320809

>  <r_j_Total_Enthalpy_(au)_298.15K_1.00E+00atm> (1)
-811.124127134917

>  <r_j_Total_Free_Energy_(au)_298.15K_1.00E+00atm> (1)
-811.188077248407

>  <r_lp_tautomer_probability> (1)
0.999999960000001

>  <r_epik_Ionization_Penalty> (1)
  0.0076

>  <r_epik_Ionization_Penalty_Charging> (1)
  0.0076

>  <r_epik_Ionization_Penalty_Neutral> (1)
  0.0000

>  <r_epik_State_Penalty> (1)
  0.0057

>  <r_epik_Charging_Adjusted_Penalty> (1)
0.0133090340678385

>  <i_epik_Tot_Q> (1)
-1

>  <i_epik_Tot_abs_Q> (1)
1

>  <s_lp_Force_Field> (1)
S-OPLS

>  <r_lp_Energy> (1)
16.982548

>  <b_lp_Chiralities_Consistent> (1)
1

$$$$
