28812_1-ethyl-2,4,5-trimethyl benzene
                    3D
 Schrodinger Suite 2021-3.
 27 27  0  0  1  0            999 V2000
   -0.5759    1.4583    0.0155 C   0  0  0  0  0  0
   -0.0246    0.0210    0.0367 C   0  0  0  0  0  0
    1.4894   -0.0186   -0.0094 C   0  0  0  0  0  0
    2.1991   -0.0061   -1.2260 C   0  0  0  0  0  0
    3.5947   -0.0009   -1.1797 C   0  0  0  0  0  0
    4.3210   -0.0031    0.0172 C   0  0  0  0  0  0
    3.6128   -0.0105    1.2316 C   0  0  0  0  0  0
    2.2137   -0.0197    1.1840 C   0  0  0  0  0  0
    4.3160   -0.0118    2.5712 C   0  0  0  0  0  0
    5.8337   -0.0002   -0.0526 C   0  0  0  0  0  0
    1.4858   -0.0152   -2.5595 C   0  0  0  0  0  0
   -1.6707    1.4640    0.0488 H   0  0  0  0  0  0
   -0.2614    1.9907   -0.8878 H   0  0  0  0  0  0
   -0.2041    2.0244    0.8755 H   0  0  0  0  0  0
   -0.3715   -0.4792    0.9485 H   0  0  0  0  0  0
   -0.4492   -0.5429   -0.8013 H   0  0  0  0  0  0
    4.1469    0.0034   -2.1183 H   0  0  0  0  0  0
    1.6626   -0.0289    2.1227 H   0  0  0  0  0  0
    3.5938   -0.0150    3.3922 H   0  0  0  0  0  0
    4.9531    0.8714    2.6965 H   0  0  0  0  0  0
    4.9589   -0.8913    2.6940 H   0  0  0  0  0  0
    6.3046    0.0052    0.9317 H   0  0  0  0  0  0
    6.1984    0.8785   -0.5973 H   0  0  0  0  0  0
    6.2018   -0.8828   -0.5889 H   0  0  0  0  0  0
    2.1970    0.0551   -3.3871 H   0  0  0  0  0  0
    0.7825    0.8192   -2.6544 H   0  0  0  0  0  0
    0.9060   -0.9357   -2.6999 H   0  0  0  0  0  0
  1  2  1  0  0  0
  1 12  1  0  0  0
  1 13  1  0  0  0
  1 14  1  0  0  0
  2  3  1  0  0  0
  2 15  1  0  0  0
  2 16  1  0  0  0
  3  8  1  0  0  0
  3  4  2  0  0  0
  4  5  1  0  0  0
  4 11  1  0  0  0
  5  6  2  0  0  0
  5 17  1  0  0  0
  6  7  1  0  0  0
  6 10  1  0  0  0
  7  8  2  0  0  0
  7  9  1  0  0  0
  8 18  1  0  0  0
  9 19  1  0  0  0
  9 20  1  0  0  0
  9 21  1  0  0  0
 10 22  1  0  0  0
 10 23  1  0  0  0
 10 24  1  0  0  0
 11 25  1  0  0  0
 11 26  1  0  0  0
 11 27  1  0  0  0
M  END
>  <i_m_Spin_multiplicity> (1)
1

>  <s_j_Task> (1)
Single Point

>  <s_j_QM_Method> (1)
DFT(b3lyp-d3)

>  <s_j_QM_Basis> (1)
cc-pvtz(-f)

>  <i_j_Number_of_canonical_orbitals> (1)
389

>  <i_j_Geometry_convergence_category> (1)
3

>  <r_j_Gas_Phase_Energy> (1)
-428.987323374688

>  <r_j_Final_Energy> (1)
-428.987323374688

>  <r_j_HOMO> (1)
-0.223503007501502

>  <r_j_LUMO> (1)
-0.00581380255886067

>  <r_j_Polarizability> (1)
130.013824993404

>  <r_j_QM_Dipole_(debye)> (1)
0.0652643195821244

>  <r_j_QM_Dipole_X_(debye)> (1)
0.0613176031421775

>  <r_j_QM_Dipole_Y_(debye)> (1)
0.0081186796876597

>  <r_j_QM_Dipole_Z_(debye)> (1)
-0.0208247447894391

>  <r_j_Lowest_Frequency_(cm-1)> (1)
101.726390321683

>  <r_j_Highest_Frequency_(cm-1)> (1)
3100.25979124

>  <r_j_2nd_Lowest_Frequency_(cm-1)> (1)
106.086121256412

>  <i_j_Num_Negative_Frequencies> (1)
0

>  <r_j_Zero_Point_Energy_(kcal/mol)> (1)
149.990876223617

>  <r_j_Entropy_(cal/mol/K)_298.15K_1.00E+00atm> (1)
102.423844476921

>  <r_j_Enthalpy_(kcal/mol)_298.15K_1.00E+00atm> (1)
7.82168152396715

>  <r_j_Free_Energy_(kcal/mol)_298.15K_1.00E+00atm> (1)
-22.715987706827

>  <r_j_Internal_Energy_(kcal/mol)_298.15K_1.00E+00atm> (1)
7.22919593513988

>  <r_j_Heat_Capacity_(cal/mol/K)_298.15K_1.00E+00atm> (1)
44.9742860275298

>  <r_j_ln(Q)_298.15K_1.00E+00atm> (1)
38.3401522926312

>  <r_j_Total_Internal_Energy_(au)_298.15K_1.00E+00atm> (1)
-428.736777240047

>  <r_j_Total_Enthalpy_(au)_298.15K_1.00E+00atm> (1)
-428.735833054155

>  <r_j_Total_Free_Energy_(au)_298.15K_1.00E+00atm> (1)
-428.784497928058

>  <r_lp_tautomer_probability> (1)
1

>  <r_epik_Ionization_Penalty> (1)
  0.0000

>  <r_epik_Ionization_Penalty_Charging> (1)
  0.0000

>  <r_epik_Ionization_Penalty_Neutral> (1)
  0.0000

>  <r_epik_State_Penalty> (1)
  0.0000

>  <r_epik_Charging_Adjusted_Penalty> (1)
0

>  <i_epik_Tot_Q> (1)
0

>  <i_epik_Tot_abs_Q> (1)
0

>  <s_lp_Force_Field> (1)
S-OPLS

>  <r_lp_Energy> (1)
6.139955

>  <b_lp_Chiralities_Consistent> (1)
1

$$$$
