28813_Butylisopropylphthalate
                    3D
 Schrodinger Suite 2021-3.
 42 42  0  0  1  0            999 V2000
   -4.2425   -3.8320    0.8704 C   0  0  0  0  0  0
   -3.8021   -2.7122   -0.0776 C   0  0  0  0  0  0
   -2.2931   -2.4539   -0.0066 C   0  0  0  0  0  0
   -1.8557   -1.3096   -0.9109 C   0  0  0  0  0  0
   -0.4224   -1.1123   -0.8460 O   0  0  0  0  0  0
    0.0329   -0.3901    0.2022 C   0  0  0  0  0  0
   -0.6839    0.0685    1.0700 O   0  0  0  0  0  0
    1.5114   -0.1784    0.1261 C   0  0  0  0  0  0
    2.1351   -0.1040   -1.1251 C   0  0  0  0  0  0
    3.4796    0.2469   -1.2293 C   0  0  0  0  0  0
    4.2132    0.5393   -0.0803 C   0  0  0  0  0  0
    3.6037    0.4606    1.1706 C   0  0  0  0  0  0
    2.2637    0.0851    1.2874 C   0  0  0  0  0  0
    1.7266   -0.0430    2.6823 C   0  0  0  0  0  0
    1.9429    0.7668    3.5592 O   0  0  0  0  0  0
    1.0683   -1.2038    2.8490 O   0  0  0  0  0  0
    0.3706   -1.4005    4.1002 C   0  0  0  0  0  0
   -0.9259   -2.1495    3.8059 C   0  0  0  0  0  0
   -1.7366   -2.3054    5.0987 C   0  0  0  0  0  0
   -0.6518   -3.5060    3.1452 C   0  0  0  0  0  0
   -5.3214   -4.0071    0.8120 H   0  0  0  0  0  0
   -3.9991   -3.5820    1.9094 H   0  0  0  0  0  0
   -3.7362   -4.7737    0.6299 H   0  0  0  0  0  0
   -4.0875   -2.9656   -1.1077 H   0  0  0  0  0  0
   -4.3405   -1.7882    0.1723 H   0  0  0  0  0  0
   -2.0103   -2.2054    1.0196 H   0  0  0  0  0  0
   -1.7390   -3.3595   -0.2833 H   0  0  0  0  0  0
   -2.0552   -1.5279   -1.9634 H   0  0  0  0  0  0
   -2.3573   -0.3779   -0.6324 H   0  0  0  0  0  0
    1.5497   -0.3034   -2.0152 H   0  0  0  0  0  0
    3.9480    0.3055   -2.2071 H   0  0  0  0  0  0
    5.2574    0.8274   -0.1560 H   0  0  0  0  0  0
    4.1599    0.6821    2.0755 H   0  0  0  0  0  0
    1.0247   -1.9778    4.7663 H   0  0  0  0  0  0
    0.1834   -0.4281    4.5615 H   0  0  0  0  0  0
   -1.4910   -1.5205    3.1063 H   0  0  0  0  0  0
   -1.1902   -2.9066    5.8356 H   0  0  0  0  0  0
   -2.6872   -2.8108    4.9002 H   0  0  0  0  0  0
   -1.9606   -1.3352    5.5550 H   0  0  0  0  0  0
   -0.0875   -4.1590    3.8226 H   0  0  0  0  0  0
   -0.0689   -3.3852    2.2286 H   0  0  0  0  0  0
   -1.5872   -4.0153    2.8908 H   0  0  0  0  0  0
  1  2  1  0  0  0
  1 21  1  0  0  0
  1 22  1  0  0  0
  1 23  1  0  0  0
  2  3  1  0  0  0
  2 24  1  0  0  0
  2 25  1  0  0  0
  3  4  1  0  0  0
  3 26  1  0  0  0
  3 27  1  0  0  0
  4  5  1  0  0  0
  4 28  1  0  0  0
  4 29  1  0  0  0
  5  6  1  0  0  0
  6  7  2  0  0  0
  6  8  1  0  0  0
  8 13  1  0  0  0
  8  9  2  0  0  0
  9 10  1  0  0  0
  9 30  1  0  0  0
 10 11  2  0  0  0
 10 31  1  0  0  0
 11 12  1  0  0  0
 11 32  1  0  0  0
 12 13  2  0  0  0
 12 33  1  0  0  0
 13 14  1  0  0  0
 14 15  2  0  0  0
 14 16  1  0  0  0
 16 17  1  0  0  0
 17 18  1  0  0  0
 17 34  1  0  0  0
 17 35  1  0  0  0
 18 19  1  0  0  0
 18 20  1  0  0  0
 18 36  1  0  0  0
 19 37  1  0  0  0
 19 38  1  0  0  0
 19 39  1  0  0  0
 20 40  1  0  0  0
 20 41  1  0  0  0
 20 42  1  0  0  0
M  END
>  <i_m_Spin_multiplicity> (1)
1

>  <s_j_Task> (1)
Single Point

>  <s_j_QM_Method> (1)
DFT(b3lyp-d3)

>  <s_j_QM_Basis> (1)
cc-pvtz(-f)

>  <i_j_Number_of_canonical_orbitals> (1)
651

>  <i_j_Geometry_convergence_category> (1)
1

>  <r_j_Gas_Phase_Energy> (1)
-924.238549047143

>  <r_j_Final_Energy> (1)
-924.238549047143

>  <r_j_HOMO> (1)
-0.272109458045204

>  <r_j_LUMO> (1)
-0.0708105717954038

>  <r_j_Polarizability> (1)
201.188887513791

>  <r_j_QM_Dipole_(debye)> (1)
3.44778401159218

>  <r_j_QM_Dipole_X_(debye)> (1)
-0.408164053670204

>  <r_j_QM_Dipole_Y_(debye)> (1)
-2.21990648085291

>  <r_j_QM_Dipole_Z_(debye)> (1)
-2.60626781282151

>  <r_j_Lowest_Frequency_(cm-1)> (1)
48.0958233389648

>  <r_j_Highest_Frequency_(cm-1)> (1)
3170.32139679062

>  <r_j_2nd_Lowest_Frequency_(cm-1)> (1)
56.030758283704

>  <i_j_Num_Negative_Frequencies> (1)
0

>  <r_j_Zero_Point_Energy_(kcal/mol)> (1)
223.600547076267

>  <r_j_Entropy_(cal/mol/K)_298.15K_1.00E+00atm> (1)
140.727602388528

>  <r_j_Enthalpy_(kcal/mol)_298.15K_1.00E+00atm> (1)
12.9305935560237

>  <r_j_Free_Energy_(kcal/mol)_298.15K_1.00E+00atm> (1)
-29.027341096116

>  <r_j_Internal_Energy_(kcal/mol)_298.15K_1.00E+00atm> (1)
12.3381079671965

>  <r_j_Heat_Capacity_(cal/mol/K)_298.15K_1.00E+00atm> (1)
76.1234763037502

>  <r_j_ln(Q)_298.15K_1.00E+00atm> (1)
48.9924846164963

>  <r_j_Total_Internal_Energy_(au)_298.15K_1.00E+00atm> (1)
-923.862556864836

>  <r_j_Total_Enthalpy_(au)_298.15K_1.00E+00atm> (1)
-923.861612678944

>  <r_j_Total_Free_Energy_(au)_298.15K_1.00E+00atm> (1)
-923.928476904359

>  <r_lp_tautomer_probability> (1)
1

>  <r_epik_Ionization_Penalty> (1)
  0.0000

>  <r_epik_Ionization_Penalty_Charging> (1)
  0.0000

>  <r_epik_Ionization_Penalty_Neutral> (1)
  0.0000

>  <r_epik_State_Penalty> (1)
  0.0000

>  <r_epik_Charging_Adjusted_Penalty> (1)
0

>  <i_epik_Tot_Q> (1)
0

>  <i_epik_Tot_abs_Q> (1)
0

>  <s_lp_Force_Field> (1)
S-OPLS

>  <r_lp_Energy> (1)
16.962343

>  <b_lp_Chiralities_Consistent> (1)
1

>  <s_epik_Chemistry_Notes> (1)
This compound has an ester and may undergo hydrolysis at high or low pH.

$$$$
