29075_1-Nonadecene
                    3D
 Schrodinger Suite 2021-3.
 57 56  0  0  1  0            999 V2000
   -8.3711    4.4589    1.6974 C   0  0  0  0  0  0
   -6.8712    4.1765    1.5671 C   0  0  0  0  0  0
   -6.2848    4.6798    0.2408 C   0  0  0  0  0  0
   -4.7645    4.5002    0.1087 C   0  0  0  0  0  0
   -4.2953    3.0401    0.0557 C   0  0  0  0  0  0
   -2.7759    2.9051   -0.0957 C   0  0  0  0  0  0
   -2.2883    1.4522   -0.1425 C   0  0  0  0  0  0
   -0.7622    1.3325   -0.2220 C   0  0  0  0  0  0
   -0.2531   -0.1135   -0.2538 C   0  0  0  0  0  0
    1.2769   -0.2074   -0.2529 C   0  0  0  0  0  0
    1.8154   -1.6429   -0.2642 C   0  0  0  0  0  0
    3.3449   -1.7041   -0.1791 C   0  0  0  0  0  0
    3.9151   -3.1274   -0.1682 C   0  0  0  0  0  0
    5.4412   -3.1493   -0.0052 C   0  0  0  0  0  0
    6.0607   -4.5511    0.0962 C   0  0  0  0  0  0
    5.9717   -5.3831   -1.1896 C   0  0  0  0  0  0
    6.6995   -6.7353   -1.0678 C   0  0  0  0  0  0
    6.6123   -7.5624   -2.3200 C   0  0  0  0  0  0
    7.6501   -7.9495   -3.0615 C   0  0  0  0  0  0
   -8.7693    4.0911    2.6488 H   0  0  0  0  0  0
   -8.9343    3.9751    0.8910 H   0  0  0  0  0  0
   -8.5764    5.5343    1.6426 H   0  0  0  0  0  0
   -6.3330    4.6506    2.3997 H   0  0  0  0  0  0
   -6.6967    3.0982    1.6671 H   0  0  0  0  0  0
   -6.7870    4.1691   -0.5937 H   0  0  0  0  0  0
   -6.5275    5.7458    0.1324 H   0  0  0  0  0  0
   -4.4217    5.0134   -0.8000 H   0  0  0  0  0  0
   -4.2677    5.0082    0.9480 H   0  0  0  0  0  0
   -4.6086    2.5123    0.9658 H   0  0  0  0  0  0
   -4.7952    2.5287   -0.7797 H   0  0  0  0  0  0
   -2.4506    3.4280   -1.0065 H   0  0  0  0  0  0
   -2.2846    3.4234    0.7405 H   0  0  0  0  0  0
   -2.6464    0.9202    0.7507 H   0  0  0  0  0  0
   -2.7435    0.9403   -1.0023 H   0  0  0  0  0  0
   -0.4000    1.8653   -1.1128 H   0  0  0  0  0  0
   -0.3176    1.8509    0.6398 H   0  0  0  0  0  0
   -0.6496   -0.6575    0.6155 H   0  0  0  0  0  0
   -0.6544   -0.6252   -1.1401 H   0  0  0  0  0  0
    1.6763    0.3372   -1.1205 H   0  0  0  0  0  0
    1.6656    0.3141    0.6338 H   0  0  0  0  0  0
    1.3832   -2.2002    0.5793 H   0  0  0  0  0  0
    1.4744   -2.1572   -1.1739 H   0  0  0  0  0  0
    3.7793   -1.1461   -1.0210 H   0  0  0  0  0  0
    3.6727   -1.1792    0.7298 H   0  0  0  0  0  0
    3.4568   -3.6976    0.6530 H   0  0  0  0  0  0
    3.6249   -3.6407   -1.0943 H   0  0  0  0  0  0
    5.9037   -2.6089   -0.8436 H   0  0  0  0  0  0
    5.7024   -2.5829    0.8991 H   0  0  0  0  0  0
    7.1186   -4.4504    0.3742 H   0  0  0  0  0  0
    5.5828   -5.1020    0.9192 H   0  0  0  0  0  0
    4.9214   -5.5614   -1.4542 H   0  0  0  0  0  0
    6.4064   -4.8171   -2.0244 H   0  0  0  0  0  0
    7.7522   -6.5632   -0.8088 H   0  0  0  0  0  0
    6.2589   -7.2943   -0.2285 H   0  0  0  0  0  0
    5.6047   -7.8419   -2.6324 H   0  0  0  0  0  0
    8.6710   -7.6904   -2.7899 H   0  0  0  0  0  0
    7.5214   -8.5388   -3.9646 H   0  0  0  0  0  0
  1  2  1  0  0  0
  1 20  1  0  0  0
  1 21  1  0  0  0
  1 22  1  0  0  0
  2  3  1  0  0  0
  2 23  1  0  0  0
  2 24  1  0  0  0
  3  4  1  0  0  0
  3 25  1  0  0  0
  3 26  1  0  0  0
  4  5  1  0  0  0
  4 27  1  0  0  0
  4 28  1  0  0  0
  5  6  1  0  0  0
  5 29  1  0  0  0
  5 30  1  0  0  0
  6  7  1  0  0  0
  6 31  1  0  0  0
  6 32  1  0  0  0
  7  8  1  0  0  0
  7 33  1  0  0  0
  7 34  1  0  0  0
  8  9  1  0  0  0
  8 35  1  0  0  0
  8 36  1  0  0  0
  9 10  1  0  0  0
  9 37  1  0  0  0
  9 38  1  0  0  0
 10 11  1  0  0  0
 10 39  1  0  0  0
 10 40  1  0  0  0
 11 12  1  0  0  0
 11 41  1  0  0  0
 11 42  1  0  0  0
 12 13  1  0  0  0
 12 43  1  0  0  0
 12 44  1  0  0  0
 13 14  1  0  0  0
 13 45  1  0  0  0
 13 46  1  0  0  0
 14 15  1  0  0  0
 14 47  1  0  0  0
 14 48  1  0  0  0
 15 16  1  0  0  0
 15 49  1  0  0  0
 15 50  1  0  0  0
 16 17  1  0  0  0
 16 51  1  0  0  0
 16 52  1  0  0  0
 17 18  1  0  0  0
 17 53  1  0  0  0
 17 54  1  0  0  0
 18 19  2  0  0  0
 18 55  1  0  0  0
 19 56  1  0  0  0
 19 57  1  0  0  0
M  END
>  <i_m_Spin_multiplicity> (1)
1

>  <s_j_Task> (1)
Single Point

>  <s_j_QM_Method> (1)
DFT(b3lyp-d3)

>  <s_j_QM_Basis> (1)
cc-pvtz(-f)

>  <i_j_Number_of_canonical_orbitals> (1)
773

>  <i_j_Geometry_convergence_category> (1)
3

>  <r_j_Gas_Phase_Energy> (1)
-747.224946245498

>  <r_j_Final_Energy> (1)
-747.224946245498

>  <r_j_HOMO> (1)
-0.283994188475028

>  <r_j_LUMO> (1)
-0.0186002066310007

>  <r_j_Polarizability> (1)
237.32504814663

>  <r_j_QM_Dipole_(debye)> (1)
0.4606552105374

>  <r_j_QM_Dipole_X_(debye)> (1)
-0.18830492650042

>  <r_j_QM_Dipole_Y_(debye)> (1)
0.294660596728301

>  <r_j_QM_Dipole_Z_(debye)> (1)
0.299865987378778

>  <r_j_Lowest_Frequency_(cm-1)> (1)
29.1157956688941

>  <r_j_Highest_Frequency_(cm-1)> (1)
3167.74785854578

>  <r_j_2nd_Lowest_Frequency_(cm-1)> (1)
38.3533470140218

>  <i_j_Num_Negative_Frequencies> (1)
0

>  <r_j_Zero_Point_Energy_(kcal/mol)> (1)
336.024733350615

>  <r_j_Entropy_(cal/mol/K)_298.15K_1.00E+00atm> (1)
157.805512733322

>  <r_j_Enthalpy_(kcal/mol)_298.15K_1.00E+00atm> (1)
15.1410106954625

>  <r_j_Free_Energy_(kcal/mol)_298.15K_1.00E+00atm> (1)
-31.9087029259774

>  <r_j_Internal_Energy_(kcal/mol)_298.15K_1.00E+00atm> (1)
14.5485251066353

>  <r_j_Heat_Capacity_(cal/mol/K)_298.15K_1.00E+00atm> (1)
88.4606761479055

>  <r_j_ln(Q)_298.15K_1.00E+00atm> (1)
53.8556608425453

>  <r_j_Total_Internal_Energy_(au)_298.15K_1.00E+00atm> (1)
-746.666272193205

>  <r_j_Total_Enthalpy_(au)_298.15K_1.00E+00atm> (1)
-746.665328007313

>  <r_j_Total_Free_Energy_(au)_298.15K_1.00E+00atm> (1)
-746.740306499066

>  <r_lp_tautomer_probability> (1)
1

>  <r_epik_Ionization_Penalty> (1)
  0.0000

>  <r_epik_Ionization_Penalty_Charging> (1)
  0.0000

>  <r_epik_Ionization_Penalty_Neutral> (1)
  0.0000

>  <r_epik_State_Penalty> (1)
  0.0000

>  <r_epik_Charging_Adjusted_Penalty> (1)
0

>  <i_epik_Tot_Q> (1)
0

>  <i_epik_Tot_abs_Q> (1)
0

>  <s_lp_Force_Field> (1)
S-OPLS

>  <r_lp_Energy> (1)
7.019563

>  <b_lp_Chiralities_Consistent> (1)
1

$$$$
