29096_Dihydromyrcenol
                    3D
 Schrodinger Suite 2021-3.
 31 30  0  0  1  0            999 V2000
   -2.5782    2.9090    0.1558 C   0  0  0  0  0  0
   -2.1129    1.4513   -0.0156 C   0  0  0  0  0  0
   -0.5708    1.3745   -0.0628 C   0  0  0  0  0  0
   -0.0210   -0.0549   -0.0974 C   0  0  0  0  0  0
    1.5104   -0.0924   -0.1139 C   0  0  0  0  0  0
    2.1307   -1.4974   -0.0124 C   0  0  0  0  0  0
    1.6837   -2.4135   -1.1617 C   0  0  0  0  0  0
    3.6625   -1.3914    0.0191 C   0  0  0  0  0  0
    1.6641   -2.0267    1.2413 O   0  0  0  0  0  0
   -2.7285    0.8502   -1.2537 C   0  0  0  0  0  0
   -3.5342   -0.2111   -1.2882 C   0  0  0  0  0  0
   -3.6685    2.9711    0.2233 H   0  0  0  0  0  0
   -2.2598    3.5212   -0.6967 H   0  0  0  0  0  0
   -2.1512    3.3526    1.0619 H   0  0  0  0  0  0
   -2.4539    0.8722    0.8544 H   0  0  0  0  0  0
   -0.2135    1.9322   -0.9420 H   0  0  0  0  0  0
   -0.1681    1.9005    0.8138 H   0  0  0  0  0  0
   -0.3778   -0.6106    0.7772 H   0  0  0  0  0  0
   -0.4249   -0.5691   -0.9766 H   0  0  0  0  0  0
    1.8875    0.3879   -1.0267 H   0  0  0  0  0  0
    1.8934    0.4941    0.7313 H   0  0  0  0  0  0
    1.9460   -1.9866   -2.1355 H   0  0  0  0  0  0
    0.6041   -2.5757   -1.1305 H   0  0  0  0  0  0
    2.1754   -3.3910   -1.0845 H   0  0  0  0  0  0
    4.0525   -0.9542   -0.9063 H   0  0  0  0  0  0
    4.1158   -2.3832    0.1360 H   0  0  0  0  0  0
    3.9803   -0.7702    0.8613 H   0  0  0  0  0  0
    2.0143   -2.9235    1.3274 H   0  0  0  0  0  0
   -2.4714    1.3545   -2.1882 H   0  0  0  0  0  0
   -3.8117   -0.7430   -0.3811 H   0  0  0  0  0  0
   -3.9469   -0.5880   -2.2196 H   0  0  0  0  0  0
  1  2  1  0  0  0
  1 12  1  0  0  0
  1 13  1  0  0  0
  1 14  1  0  0  0
  2  3  1  0  0  0
  2 10  1  0  0  0
  2 15  1  0  0  0
  3  4  1  0  0  0
  3 16  1  0  0  0
  3 17  1  0  0  0
  4  5  1  0  0  0
  4 18  1  0  0  0
  4 19  1  0  0  0
  5  6  1  0  0  0
  5 20  1  0  0  0
  5 21  1  0  0  0
  6  7  1  0  0  0
  6  8  1  0  0  0
  6  9  1  0  0  0
  7 22  1  0  0  0
  7 23  1  0  0  0
  7 24  1  0  0  0
  8 25  1  0  0  0
  8 26  1  0  0  0
  8 27  1  0  0  0
  9 28  1  0  0  0
 10 11  2  0  0  0
 10 29  1  0  0  0
 11 30  1  0  0  0
 11 31  1  0  0  0
M  END
>  <i_m_Spin_multiplicity> (1)
1

>  <s_j_Task> (1)
Single Point

>  <s_j_QM_Method> (1)
DFT(b3lyp-d3)

>  <s_j_QM_Basis> (1)
cc-pvtz(-f)

>  <i_j_Number_of_canonical_orbitals> (1)
430

>  <i_j_Geometry_convergence_category> (1)
0

>  <r_j_Gas_Phase_Energy> (1)
-468.514404244927

>  <r_j_Final_Energy> (1)
-468.514404244927

>  <r_j_HOMO> (1)
-0.250059414786414

>  <r_j_LUMO> (1)
0.00962399408513243

>  <r_j_Polarizability> (1)
125.975787618831

>  <r_j_QM_Dipole_(debye)> (1)
1.37260153154278

>  <r_j_QM_Dipole_X_(debye)> (1)
0.993244535797145

>  <r_j_QM_Dipole_Y_(debye)> (1)
-0.568445842982042

>  <r_j_QM_Dipole_Z_(debye)> (1)
-0.757871743832119

>  <r_j_Lowest_Frequency_(cm-1)> (1)
58.4784395493882

>  <r_j_Highest_Frequency_(cm-1)> (1)
3752.54910164317

>  <r_j_2nd_Lowest_Frequency_(cm-1)> (1)
73.5558484438844

>  <i_j_Num_Negative_Frequencies> (1)
0

>  <r_j_Zero_Point_Energy_(kcal/mol)> (1)
177.267529891308

>  <r_j_Entropy_(cal/mol/K)_298.15K_1.00E+00atm> (1)
110.121658562949

>  <r_j_Enthalpy_(kcal/mol)_298.15K_1.00E+00atm> (1)
8.87910834367204

>  <r_j_Free_Energy_(kcal/mol)_298.15K_1.00E+00atm> (1)
-23.9536641568713

>  <r_j_Internal_Energy_(kcal/mol)_298.15K_1.00E+00atm> (1)
8.28662275484477

>  <r_j_Heat_Capacity_(cal/mol/K)_298.15K_1.00E+00atm> (1)
51.5387393710833

>  <r_j_ln(Q)_298.15K_1.00E+00atm> (1)
40.4291085025098

>  <r_j_Total_Internal_Energy_(au)_298.15K_1.00E+00atm> (1)
-468.218704878595

>  <r_j_Total_Enthalpy_(au)_298.15K_1.00E+00atm> (1)
-468.217760692703

>  <r_j_Total_Free_Energy_(au)_298.15K_1.00E+00atm> (1)
-468.2700830465

>  <r_lp_tautomer_probability> (1)
1

>  <r_epik_Ionization_Penalty> (1)
  0.0000

>  <r_epik_Ionization_Penalty_Charging> (1)
  0.0000

>  <r_epik_Ionization_Penalty_Neutral> (1)
  0.0000

>  <r_epik_State_Penalty> (1)
  0.0000

>  <r_epik_Charging_Adjusted_Penalty> (1)
0

>  <i_epik_Tot_Q> (1)
0

>  <i_epik_Tot_abs_Q> (1)
0

>  <s_lp_Force_Field> (1)
S-OPLS

>  <r_lp_Energy> (1)
2.33791

>  <b_lp_Chiralities_Consistent> (1)
1

$$$$
