29393_Oryzalin
                    3D
 Schrodinger Suite 2021-3.
 41 41  0  0  1  0            999 V2000
   -2.3647   -2.4700   -1.6127 C   0  0  0  0  0  0
   -1.6907   -1.1080   -1.4181 C   0  0  0  0  0  0
   -0.6215   -1.1856   -0.3226 C   0  0  0  0  0  0
    0.1243    0.0615   -0.0695 N   0  0  0  0  0  0
   -0.6288    1.1638    0.5408 C   0  0  0  0  0  0
   -0.0249    2.5429    0.2512 C   0  0  0  0  0  0
   -0.9323    3.6646    0.7630 C   0  0  0  0  0  0
    1.5024    0.0039   -0.0237 C   0  0  0  0  0  0
    2.3040    0.4005    1.0735 C   0  0  0  0  0  0
    3.6953    0.4399    1.0388 C   0  0  0  0  0  0
    4.3557   -0.0461   -0.0823 C   0  0  0  0  0  0
    3.6292   -0.5076   -1.1827 C   0  0  0  0  0  0
    2.2494   -0.4384   -1.1450 C   0  0  0  0  0  0
    1.5456   -0.7586   -2.4010 N   0  3  1  0  0  0
    0.8897    0.1399   -2.9164 O   0  0  0  0  0  0
    1.6916   -1.8944   -2.8493 O   0  5  0  0  0  0
    6.1544   -0.0853   -0.1241 S   0  0  2  0  0  0
    6.5345   -0.0617   -1.5342 O   0  0  0  0  0  0
    6.6169    0.8866    0.8622 O   0  0  0  0  0  0
    6.6291   -1.5836    0.4509 N   0  0  0  0  0  0
    1.6934    0.6876    2.3784 N   0  3  1  0  0  0
    0.8229   -0.0897    2.7711 O   0  0  0  0  0  0
    2.1252    1.6490    3.0111 O   0  5  0  0  0  0
   -3.1439   -2.4161   -2.3781 H   0  0  0  0  0  0
   -2.8311   -2.8224   -0.6853 H   0  0  0  0  0  0
   -1.6380   -3.2260   -1.9303 H   0  0  0  0  0  0
   -1.2312   -0.7740   -2.3523 H   0  0  0  0  0  0
   -2.4482   -0.3612   -1.1539 H   0  0  0  0  0  0
   -1.0783   -1.5028    0.6278 H   0  0  0  0  0  0
    0.1023   -1.9637   -0.5818 H   0  0  0  0  0  0
   -1.6229    1.1287    0.0868 H   0  0  0  0  0  0
   -0.7751    1.0146    1.6193 H   0  0  0  0  0  0
    0.9594    2.6446    0.7196 H   0  0  0  0  0  0
    0.1298    2.6296   -0.8305 H   0  0  0  0  0  0
   -0.4968    4.6452    0.5514 H   0  0  0  0  0  0
   -1.0763    3.5910    1.8464 H   0  0  0  0  0  0
   -1.9196    3.6276    0.2891 H   0  0  0  0  0  0
    4.2462    0.8175    1.8928 H   0  0  0  0  0  0
    4.1362   -0.8451   -2.0801 H   0  0  0  0  0  0
    6.4122   -1.7287    1.4312 H   0  0  0  0  0  0
    6.3625   -2.3529   -0.1543 H   0  0  0  0  0  0
  1  2  1  0  0  0
  1 24  1  0  0  0
  1 25  1  0  0  0
  1 26  1  0  0  0
  2  3  1  0  0  0
  2 27  1  0  0  0
  2 28  1  0  0  0
  3  4  1  0  0  0
  3 29  1  0  0  0
  3 30  1  0  0  0
  4  5  1  0  0  0
  4  8  1  0  0  0
  5  6  1  0  0  0
  5 31  1  0  0  0
  5 32  1  0  0  0
  6  7  1  0  0  0
  6 33  1  0  0  0
  6 34  1  0  0  0
  7 35  1  0  0  0
  7 36  1  0  0  0
  7 37  1  0  0  0
  8 13  1  0  0  0
  8  9  2  0  0  0
  9 10  1  0  0  0
  9 21  1  0  0  0
 10 11  2  0  0  0
 10 38  1  0  0  0
 11 12  1  0  0  0
 11 17  1  0  0  0
 12 13  2  0  0  0
 12 39  1  0  0  0
 13 14  1  0  0  0
 14 15  2  0  0  0
 14 16  1  0  0  0
 17 18  2  0  0  0
 17 19  2  0  0  0
 17 20  1  0  0  0
 20 40  1  0  0  0
 20 41  1  0  0  0
 21 22  2  0  0  0
 21 23  1  0  0  0
M  END
>  <i_m_Spin_multiplicity> (1)
1

>  <s_j_Task> (1)
Single Point

>  <s_j_QM_Method> (1)
DFT(b3lyp-d3)

>  <s_j_QM_Basis> (1)
cc-pvtz(-f)

>  <i_j_Number_of_canonical_orbitals> (1)
686

>  <i_j_Geometry_convergence_category> (1)
1

>  <r_j_Gas_Phase_Energy> (1)
-1536.85466646173

>  <r_j_Final_Energy> (1)
-1536.85466646173

>  <r_j_HOMO> (1)
-0.246361549583857

>  <r_j_LUMO> (1)
-0.120019790098586

>  <r_j_Polarizability> (1)
220.978674288611

>  <r_j_QM_Dipole_(debye)> (1)
4.55709164960685

>  <r_j_QM_Dipole_X_(debye)> (1)
-3.30958271685086

>  <r_j_QM_Dipole_Y_(debye)> (1)
-2.97348950663463

>  <r_j_QM_Dipole_Z_(debye)> (1)
0.985954713550449

>  <r_j_Lowest_Frequency_(cm-1)> (1)
37.7078572872828

>  <r_j_Highest_Frequency_(cm-1)> (1)
3597.20084913253

>  <r_j_2nd_Lowest_Frequency_(cm-1)> (1)
49.2288721697183

>  <i_j_Num_Negative_Frequencies> (1)
0

>  <r_j_Zero_Point_Energy_(kcal/mol)> (1)
199.680331590438

>  <r_j_Entropy_(cal/mol/K)_298.15K_1.00E+00atm> (1)
153.618235684758

>  <r_j_Enthalpy_(kcal/mol)_298.15K_1.00E+00atm> (1)
14.7174990965606

>  <r_j_Free_Energy_(kcal/mol)_298.15K_1.00E+00atm> (1)
-31.0837778728499

>  <r_j_Internal_Energy_(kcal/mol)_298.15K_1.00E+00atm> (1)
14.1250135077333

>  <r_j_Heat_Capacity_(cal/mol/K)_298.15K_1.00E+00atm> (1)
85.811856317076

>  <r_j_ln(Q)_298.15K_1.00E+00atm> (1)
52.4633484071318

>  <r_j_Total_Internal_Energy_(au)_298.15K_1.00E+00atm> (1)
-1536.5139459542

>  <r_j_Total_Enthalpy_(au)_298.15K_1.00E+00atm> (1)
-1536.51300176831

>  <r_j_Total_Free_Energy_(au)_298.15K_1.00E+00atm> (1)
-1536.58599074961

>  <r_epik_Ionization_Penalty> (1)
  0.0056

>  <r_epik_Ionization_Penalty_Charging> (1)
  0.0000

>  <r_epik_Ionization_Penalty_Neutral> (1)
  0.0056

>  <r_epik_State_Penalty> (1)
  0.0041

>  <r_epik_Charging_Adjusted_Penalty> (1)
0.00410211

>  <i_epik_Tot_Q> (1)
0

>  <i_epik_Tot_abs_Q> (1)
4

>  <s_lp_Force_Field> (1)
S-OPLS

>  <r_lp_Energy> (1)
38.127

>  <b_lp_Chiralities_Consistent> (1)
1

$$$$
