29777_Heptadecylcyclohexane
                    3D
 Schrodinger Suite 2021-3.
 69 69  0  0  1  0            999 V2000
   -8.7243    3.9276   -1.4539 C   0  0  0  0  0  0
   -7.2018    3.7981   -1.3454 C   0  0  0  0  0  0
   -6.6642    4.2348    0.0246 C   0  0  0  0  0  0
   -5.1326    4.2048    0.1461 C   0  0  0  0  0  0
   -4.5135    2.8032    0.0620 C   0  0  0  0  0  0
   -2.9882    2.8085    0.2167 C   0  0  0  0  0  0
   -2.3610    1.4124    0.1284 C   0  0  0  0  0  0
   -0.8314    1.4253    0.2289 C   0  0  0  0  0  0
   -0.1995    0.0315    0.1361 C   0  0  0  0  0  0
    1.3326    0.0559    0.1825 C   0  0  0  0  0  0
    1.9723   -1.3341    0.0856 C   0  0  0  0  0  0
    3.5051   -1.2959    0.0816 C   0  0  0  0  0  0
    4.1466   -2.6860   -0.0227 C   0  0  0  0  0  0
    5.6834   -2.6811    0.0079 C   0  0  0  0  0  0
    6.3378   -1.9903   -1.1961 C   0  0  0  0  0  0
    7.8692   -2.0737   -1.1863 C   0  0  0  0  0  0
    8.5099   -1.3670   -2.3879 C   0  0  0  0  0  0
   10.0386   -1.5007   -2.4925 C   0  0  0  0  0  0
   10.5483   -0.9276   -3.8295 C   0  0  0  0  0  0
   12.0730   -1.0423   -3.9738 C   0  0  0  0  0  0
   12.7953   -0.3726   -2.7956 C   0  0  0  0  0  0
   12.3073   -0.9449   -1.4568 C   0  0  0  0  0  0
   10.7806   -0.8332   -1.3178 C   0  0  0  0  0  0
   -9.0867    3.6108   -2.4375 H   0  0  0  0  0  0
   -9.0444    4.9643   -1.2979 H   0  0  0  0  0  0
   -9.2265    3.3112   -0.6993 H   0  0  0  0  0  0
   -6.9130    2.7590   -1.5459 H   0  0  0  0  0  0
   -6.7235    4.4036   -2.1279 H   0  0  0  0  0  0
   -7.0177    5.2543    0.2312 H   0  0  0  0  0  0
   -7.1046    3.5980    0.8056 H   0  0  0  0  0  0
   -4.6962    4.8400   -0.6384 H   0  0  0  0  0  0
   -4.8411    4.6618    1.1016 H   0  0  0  0  0  0
   -4.9585    2.1637    0.8381 H   0  0  0  0  0  0
   -4.7699    2.3374   -0.8985 H   0  0  0  0  0  0
   -2.5495    3.4521   -0.5595 H   0  0  0  0  0  0
   -2.7190    3.2691    1.1781 H   0  0  0  0  0  0
   -2.7749    0.7756    0.9234 H   0  0  0  0  0  0
   -2.6565    0.9415   -0.8203 H   0  0  0  0  0  0
   -0.4232    2.0614   -0.5698 H   0  0  0  0  0  0
   -0.5312    1.8990    1.1746 H   0  0  0  0  0  0
   -0.5809   -0.5974    0.9532 H   0  0  0  0  0  0
   -0.5253   -0.4531   -0.7956 H   0  0  0  0  0  0
    1.7078    0.6845   -0.6379 H   0  0  0  0  0  0
    1.6621    0.5440    1.1110 H   0  0  0  0  0  0
    1.6225   -1.9565    0.9217 H   0  0  0  0  0  0
    1.6207   -1.8322   -0.8296 H   0  0  0  0  0  0
    3.8400   -0.6661   -0.7528 H   0  0  0  0  0  0
    3.8610   -0.8012    0.9971 H   0  0  0  0  0  0
    3.7747   -3.3092    0.8020 H   0  0  0  0  0  0
    3.8053   -3.1729   -0.9478 H   0  0  0  0  0  0
    6.0270   -2.1980    0.9340 H   0  0  0  0  0  0
    6.0416   -3.7185    0.0569 H   0  0  0  0  0  0
    5.9544   -2.4413   -2.1231 H   0  0  0  0  0  0
    6.0410   -0.9339   -1.2285 H   0  0  0  0  0  0
    8.2427   -1.6401   -0.2496 H   0  0  0  0  0  0
    8.1776   -3.1291   -1.1779 H   0  0  0  0  0  0
    8.0606   -1.7666   -3.3084 H   0  0  0  0  0  0
    8.2461   -0.2990   -2.3643 H   0  0  0  0  0  0
   10.2866   -2.5749   -2.4758 H   0  0  0  0  0  0
   10.0489   -1.4344   -4.6652 H   0  0  0  0  0  0
   10.2585    0.1323   -3.8911 H   0  0  0  0  0  0
   12.3525   -2.1051   -4.0102 H   0  0  0  0  0  0
   12.3982   -0.6015   -4.9239 H   0  0  0  0  0  0
   13.8809   -0.4945   -2.8916 H   0  0  0  0  0  0
   12.5967    0.7086   -2.8191 H   0  0  0  0  0  0
   12.5969   -2.0036   -1.3919 H   0  0  0  0  0  0
   12.8005   -0.4354   -0.6202 H   0  0  0  0  0  0
   10.4960    0.2295   -1.2822 H   0  0  0  0  0  0
   10.4635   -1.2725   -0.3655 H   0  0  0  0  0  0
  1  2  1  0  0  0
  1 24  1  0  0  0
  1 25  1  0  0  0
  1 26  1  0  0  0
  2  3  1  0  0  0
  2 27  1  0  0  0
  2 28  1  0  0  0
  3  4  1  0  0  0
  3 29  1  0  0  0
  3 30  1  0  0  0
  4  5  1  0  0  0
  4 31  1  0  0  0
  4 32  1  0  0  0
  5  6  1  0  0  0
  5 33  1  0  0  0
  5 34  1  0  0  0
  6  7  1  0  0  0
  6 35  1  0  0  0
  6 36  1  0  0  0
  7  8  1  0  0  0
  7 37  1  0  0  0
  7 38  1  0  0  0
  8  9  1  0  0  0
  8 39  1  0  0  0
  8 40  1  0  0  0
  9 10  1  0  0  0
  9 41  1  0  0  0
  9 42  1  0  0  0
 10 11  1  0  0  0
 10 43  1  0  0  0
 10 44  1  0  0  0
 11 12  1  0  0  0
 11 45  1  0  0  0
 11 46  1  0  0  0
 12 13  1  0  0  0
 12 47  1  0  0  0
 12 48  1  0  0  0
 13 14  1  0  0  0
 13 49  1  0  0  0
 13 50  1  0  0  0
 14 15  1  0  0  0
 14 51  1  0  0  0
 14 52  1  0  0  0
 15 16  1  0  0  0
 15 53  1  0  0  0
 15 54  1  0  0  0
 16 17  1  0  0  0
 16 55  1  0  0  0
 16 56  1  0  0  0
 17 18  1  0  0  0
 17 57  1  0  0  0
 17 58  1  0  0  0
 18 23  1  0  0  0
 18 19  1  0  0  0
 18 59  1  0  0  0
 19 20  1  0  0  0
 19 60  1  0  0  0
 19 61  1  0  0  0
 20 21  1  0  0  0
 20 62  1  0  0  0
 20 63  1  0  0  0
 21 22  1  0  0  0
 21 64  1  0  0  0
 21 65  1  0  0  0
 22 23  1  0  0  0
 22 66  1  0  0  0
 22 67  1  0  0  0
 23 68  1  0  0  0
 23 69  1  0  0  0
M  END
>  <i_m_Spin_multiplicity> (1)
1

>  <s_j_Task> (1)
Single Point

>  <s_j_QM_Method> (1)
DFT(b3lyp-d3)

>  <s_j_QM_Basis> (1)
cc-pvtz(-f)

>  <i_j_Number_of_canonical_orbitals> (1)
934

>  <i_j_Geometry_convergence_category> (1)
0

>  <r_j_Gas_Phase_Energy> (1)
-904.572394352274

>  <r_j_Final_Energy> (1)
-904.572394352274

>  <r_j_HOMO> (1)
-0.281119984869059

>  <r_j_LUMO> (1)
0.0274897674639445

>  <r_j_Polarizability> (1)
281.661777385319

>  <r_j_QM_Dipole_(debye)> (1)
0.115618198102174

>  <r_j_QM_Dipole_X_(debye)> (1)
0.0953964065296564

>  <r_j_QM_Dipole_Y_(debye)> (1)
-0.0620645431456529

>  <r_j_QM_Dipole_Z_(debye)> (1)
0.0203736554830846

>  <r_j_Lowest_Frequency_(cm-1)> (1)
22.4565951040372

>  <r_j_Highest_Frequency_(cm-1)> (1)
3045.57540688231

>  <r_j_2nd_Lowest_Frequency_(cm-1)> (1)
36.8426998266184

>  <i_j_Num_Negative_Frequencies> (1)
0

>  <r_j_Zero_Point_Energy_(kcal/mol)> (1)
409.943536260403

>  <r_j_Entropy_(cal/mol/K)_298.15K_1.00E+00atm> (1)
171.436642544255

>  <r_j_Enthalpy_(kcal/mol)_298.15K_1.00E+00atm> (1)
17.1402165095709

>  <r_j_Free_Energy_(kcal/mol)_298.15K_1.00E+00atm> (1)
-33.9736184649987

>  <r_j_Internal_Energy_(kcal/mol)_298.15K_1.00E+00atm> (1)
16.5477309207437

>  <r_j_Heat_Capacity_(cal/mol/K)_298.15K_1.00E+00atm> (1)
103.861000377413

>  <r_j_ln(Q)_298.15K_1.00E+00atm> (1)
57.3408351285704

>  <r_j_Total_Internal_Energy_(au)_298.15K_1.00E+00atm> (1)
-903.892737251352

>  <r_j_Total_Enthalpy_(au)_298.15K_1.00E+00atm> (1)
-903.89179306546

>  <r_j_Total_Free_Energy_(au)_298.15K_1.00E+00atm> (1)
-903.973248146886

>  <r_lp_tautomer_probability> (1)
1

>  <r_epik_Ionization_Penalty> (1)
  0.0000

>  <r_epik_Ionization_Penalty_Charging> (1)
  0.0000

>  <r_epik_Ionization_Penalty_Neutral> (1)
  0.0000

>  <r_epik_State_Penalty> (1)
  0.0000

>  <r_epik_Charging_Adjusted_Penalty> (1)
0

>  <i_epik_Tot_Q> (1)
0

>  <i_epik_Tot_abs_Q> (1)
0

>  <s_lp_Force_Field> (1)
S-OPLS

>  <r_lp_Energy> (1)
17.011

>  <b_lp_Chiralities_Consistent> (1)
1

$$$$
