30086_7-nitrobenz(a)anthracene
                    3D
 Schrodinger Suite 2021-3.
 32 35  0  0  1  0            999 V2000
   -4.1774    4.9650   -0.0001 C   0  0  0  0  0  0
   -4.8741    3.7453   -0.0001 C   0  0  0  0  0  0
   -4.1895    2.5419    0.0000 C   0  0  0  0  0  0
   -2.7771    2.4996    0.0000 C   0  0  0  0  0  0
   -2.0853    3.7365    0.0000 C   0  0  0  0  0  0
   -2.7966    4.9554   -0.0001 C   0  0  0  0  0  0
   -0.6566    3.7117   -0.0001 C   0  0  0  0  0  0
    0.0685    2.5628    0.0000 C   0  0  0  0  0  0
   -0.5554    1.2581    0.0000 C   0  0  0  0  0  0
    0.1353    0.0047    0.0000 C   0  0  0  0  0  0
   -0.5641   -1.2557    0.0000 C   0  0  0  0  0  0
   -0.0038   -2.5753   -0.0002 C   0  0  0  0  0  0
   -0.7970   -3.7001   -0.0002 C   0  0  0  0  0  0
   -2.2084   -3.6241    0.0000 C   0  0  0  0  0  0
   -2.7918   -2.3873    0.0001 C   0  0  0  0  0  0
   -2.0035   -1.1993    0.0001 C   0  0  0  0  0  0
   -2.6638    0.0332    0.0001 C   0  0  0  0  0  0
   -2.0054    1.2507    0.0001 C   0  0  0  0  0  0
    1.6187   -0.0134    0.0001 N   0  3  1  0  0  0
    2.2086   -1.0979   -0.0008 O   0  0  0  0  0  0
    2.2550    1.0449    0.0010 O   0  5  0  0  0  0
   -4.7213    5.9045   -0.0002 H   0  0  0  0  0  0
   -5.9600    3.7422   -0.0002 H   0  0  0  0  0  0
   -4.7704    1.6277    0.0000 H   0  0  0  0  0  0
   -2.2367    5.8866   -0.0001 H   0  0  0  0  0  0
   -0.1290    4.6619   -0.0001 H   0  0  0  0  0  0
    1.1391    2.6310   -0.0001 H   0  0  0  0  0  0
    1.0622   -2.7002   -0.0003 H   0  0  0  0  0  0
   -0.3145   -4.6732   -0.0003 H   0  0  0  0  0  0
   -2.8110   -4.5268    0.0000 H   0  0  0  0  0  0
   -3.8733   -2.2814    0.0002 H   0  0  0  0  0  0
   -3.7463    0.0040    0.0002 H   0  0  0  0  0  0
  1  6  1  0  0  0
  1  2  2  0  0  0
  1 22  1  0  0  0
  2  3  1  0  0  0
  2 23  1  0  0  0
  3  4  2  0  0  0
  3 24  1  0  0  0
  4 18  1  0  0  0
  4  5  1  0  0  0
  5  6  2  0  0  0
  5  7  1  0  0  0
  6 25  1  0  0  0
  7  8  2  0  0  0
  7 26  1  0  0  0
  8  9  1  0  0  0
  8 27  1  0  0  0
  9 18  1  0  0  0
  9 10  2  0  0  0
 10 11  1  0  0  0
 10 19  1  0  0  0
 11 16  1  0  0  0
 11 12  2  0  0  0
 12 13  1  0  0  0
 12 28  1  0  0  0
 13 14  2  0  0  0
 13 29  1  0  0  0
 14 15  1  0  0  0
 14 30  1  0  0  0
 15 16  2  0  0  0
 15 31  1  0  0  0
 16 17  1  0  0  0
 17 18  2  0  0  0
 17 32  1  0  0  0
 19 20  2  0  0  0
 19 21  1  0  0  0
M  END
>  <i_m_Spin_multiplicity> (1)
1

>  <s_j_Task> (1)
Single Point

>  <s_j_QM_Method> (1)
DFT(b3lyp-d3)

>  <s_j_QM_Basis> (1)
cc-pvtz(-f)

>  <i_j_Number_of_canonical_orbitals> (1)
565

>  <i_j_Geometry_convergence_category> (1)
0

>  <r_j_Gas_Phase_Energy> (1)
-897.95666921058

>  <r_j_Final_Energy> (1)
-897.95666921058

>  <r_j_HOMO> (1)
-0.223025465215128

>  <r_j_LUMO> (1)
-0.108638008518517

>  <r_j_Polarizability> (1)
250.416855913302

>  <r_j_QM_Dipole_(debye)> (1)
5.4397031853999

>  <r_j_QM_Dipole_X_(debye)> (1)
-5.41275860171112

>  <r_j_QM_Dipole_Y_(debye)> (1)
0.540754050737385

>  <r_j_QM_Dipole_Z_(debye)> (1)
-0.000348515771018464

>  <r_j_Lowest_Frequency_(cm-1)> (1)
-99.169379234444

>  <r_j_Highest_Frequency_(cm-1)> (1)
3279.2478800504

>  <r_j_2nd_Lowest_Frequency_(cm-1)> (1)
36.4819482919376

>  <i_j_Num_Negative_Frequencies> (1)
1

>  <r_j_Zero_Point_Energy_(kcal/mol)> (1)
152.120106583583

>  <r_j_Entropy_(cal/mol/K)_298.15K_1.00E+00atm> (1)
114.126635231894

>  <r_j_Enthalpy_(kcal/mol)_298.15K_1.00E+00atm> (1)
9.07992869828874

>  <r_j_Free_Energy_(kcal/mol)_298.15K_1.00E+00atm> (1)
-24.9469275961005

>  <r_j_Internal_Energy_(kcal/mol)_298.15K_1.00E+00atm> (1)
8.48744310946146

>  <r_j_Heat_Capacity_(cal/mol/K)_298.15K_1.00E+00atm> (1)
58.3304293146107

>  <r_j_ln(Q)_298.15K_1.00E+00atm> (1)
42.1055432681135

>  <r_j_Total_Internal_Energy_(au)_298.15K_1.00E+00atm> (1)
-897.700724786836

>  <r_j_Total_Enthalpy_(au)_298.15K_1.00E+00atm> (1)
-897.699780600944

>  <r_j_Total_Free_Energy_(au)_298.15K_1.00E+00atm> (1)
-897.754005848404

>  <r_lp_tautomer_probability> (1)
1

>  <r_epik_Ionization_Penalty> (1)
  0.0000

>  <r_epik_Ionization_Penalty_Charging> (1)
  0.0000

>  <r_epik_Ionization_Penalty_Neutral> (1)
  0.0000

>  <r_epik_State_Penalty> (1)
  0.0000

>  <r_epik_Charging_Adjusted_Penalty> (1)
0

>  <i_epik_Tot_Q> (1)
0

>  <i_epik_Tot_abs_Q> (1)
2

>  <s_lp_Force_Field> (1)
S-OPLS

>  <r_lp_Energy> (1)
61.8478

>  <b_lp_Chiralities_Consistent> (1)
1

$$$$
