300_Chloroacetic acid
                    3D
 Schrodinger Suite 2021-3.
  7  6  0  0  1  0            999 V2000
    0.1056    0.1378    0.3101 C   0  0  0  0  0  0
    1.6702    0.0624    0.1610 C   0  0  0  0  0  0
    2.0494   -0.9708    0.7703 O   0  0  0  0  0  0
    2.2857    0.9330   -0.4710 O   0  5  0  0  0  0
   -0.7981    1.5735   -0.4889 Cl  0  0  0  0  0  0
   -0.3515   -0.7525   -0.1247 H   0  0  0  0  0  0
   -0.1639    0.1949    1.3658 H   0  0  0  0  0  0
  1  2  1  0  0  0
  1  5  1  0  0  0
  1  6  1  0  0  0
  1  7  1  0  0  0
  2  3  2  0  0  0
  2  4  1  0  0  0
M  END
>  <i_m_Spin_multiplicity> (1)
1

>  <s_j_Task> (1)
Single Point

>  <s_j_QM_Method> (1)
DFT(b3lyp-d3)

>  <s_j_QM_Basis> (1)
cc-pvtz(-f)

>  <i_j_Number_of_canonical_orbitals> (1)
137

>  <i_j_Geometry_convergence_category> (1)
3

>  <r_j_Gas_Phase_Energy> (1)
-688.248149365582

>  <r_j_Final_Energy> (1)
-688.248149365582

>  <r_j_HOMO> (1)
-0.0515712142809304

>  <r_j_LUMO> (1)
0.174708092974066

>  <r_j_Polarizability> (1)
46.6304775385499

>  <r_j_QM_Dipole_(debye)> (1)
4.56020480087571

>  <r_j_QM_Dipole_X_(debye)> (1)
-4.50385342859343

>  <r_j_QM_Dipole_Y_(debye)> (1)
0.704500352002464

>  <r_j_QM_Dipole_Z_(debye)> (1)
0.120213866527541

>  <r_j_Lowest_Frequency_(cm-1)> (1)
121.824810167343

>  <r_j_Highest_Frequency_(cm-1)> (1)
3097.60815833965

>  <r_j_2nd_Lowest_Frequency_(cm-1)> (1)
187.544200707878

>  <i_j_Num_Negative_Frequencies> (1)
0

>  <r_j_Zero_Point_Energy_(kcal/mol)> (1)
24.7638477050733

>  <r_j_Entropy_(cal/mol/K)_298.15K_1.00E+00atm> (1)
73.9712138478456

>  <r_j_Enthalpy_(kcal/mol)_298.15K_1.00E+00atm> (1)
3.76560293293419

>  <r_j_Free_Energy_(kcal/mol)_298.15K_1.00E+00atm> (1)
-18.288914475801

>  <r_j_Internal_Energy_(kcal/mol)_298.15K_1.00E+00atm> (1)
3.17311734410691

>  <r_j_Heat_Capacity_(cal/mol/K)_298.15K_1.00E+00atm> (1)
15.9705175672932

>  <r_j_ln(Q)_298.15K_1.00E+00atm> (1)
30.8681169984249

>  <r_j_Total_Internal_Energy_(au)_298.15K_1.00E+00atm> (1)
-688.203628977628

>  <r_j_Total_Enthalpy_(au)_298.15K_1.00E+00atm> (1)
-688.202684791735

>  <r_j_Total_Free_Energy_(au)_298.15K_1.00E+00atm> (1)
-688.237830902612

>  <r_lp_tautomer_probability> (1)
1

>  <r_epik_Ionization_Penalty> (1)
  0.0000

>  <r_epik_Ionization_Penalty_Charging> (1)
  0.0000

>  <r_epik_Ionization_Penalty_Neutral> (1)
  0.0000

>  <r_epik_State_Penalty> (1)
  0.0000

>  <r_epik_Charging_Adjusted_Penalty> (1)
4.16354e-05

>  <i_epik_Tot_Q> (1)
-1

>  <i_epik_Tot_abs_Q> (1)
1

>  <s_lp_Force_Field> (1)
S-OPLS

>  <r_lp_Energy> (1)
5.89146

>  <b_lp_Chiralities_Consistent> (1)
1

$$$$
