30215_2,4,5-Trimethyloxazole
                    3D
 Schrodinger Suite 2021-3.
 17 17  0  0  1  0            999 V2000
   -0.0125   -0.0087    0.0000 C   0  0  0  0  0  0
    1.4795    0.0589    0.0000 C   0  0  0  0  0  0
    2.3005    1.1435    0.0000 C   0  0  0  0  0  0
    3.6020    0.6770    0.0000 O   0  0  0  0  0  0
    3.4850   -0.6817    0.0000 C   0  0  0  0  0  0
    2.2587   -1.1018    0.0000 N   0  0  0  0  0  0
    4.7407   -1.4794    0.0000 C   0  0  0  0  0  0
    2.1064    2.6161    0.0000 C   0  0  0  0  0  0
   -0.4580    0.9898    0.0000 H   0  0  0  0  0  0
   -0.3776   -0.5467    0.8816 H   0  0  0  0  0  0
   -0.3776   -0.5468   -0.8815 H   0  0  0  0  0  0
    4.4860   -2.5397    0.0000 H   0  0  0  0  0  0
    5.3479   -1.2561    0.8836 H   0  0  0  0  0  0
    5.3479   -1.2561   -0.8837 H   0  0  0  0  0  0
    1.0396    2.8513    0.0000 H   0  0  0  0  0  0
    2.5584    3.0803   -0.8842 H   0  0  0  0  0  0
    2.5583    3.0802    0.8843 H   0  0  0  0  0  0
  1  2  1  0  0  0
  1  9  1  0  0  0
  1 10  1  0  0  0
  1 11  1  0  0  0
  2  6  1  0  0  0
  2  3  2  0  0  0
  3  4  1  0  0  0
  3  8  1  0  0  0
  4  5  1  0  0  0
  5  6  2  0  0  0
  5  7  1  0  0  0
  7 12  1  0  0  0
  7 13  1  0  0  0
  7 14  1  0  0  0
  8 15  1  0  0  0
  8 16  1  0  0  0
  8 17  1  0  0  0
M  END
>  <i_m_Spin_multiplicity> (1)
1

>  <s_j_Task> (1)
Single Point

>  <s_j_QM_Method> (1)
DFT(b3lyp-d3)

>  <s_j_QM_Basis> (1)
cc-pvtz(-f)

>  <i_j_Number_of_canonical_orbitals> (1)
262

>  <i_j_Geometry_convergence_category> (1)
3

>  <r_j_Gas_Phase_Energy> (1)
-364.170230337478

>  <r_j_Final_Energy> (1)
-364.170230337478

>  <r_j_HOMO> (1)
-0.222459250107163

>  <r_j_LUMO> (1)
0.00440714776394857

>  <r_j_Polarizability> (1)
79.0594384324655

>  <r_j_QM_Dipole_(debye)> (1)
1.46819708493301

>  <r_j_QM_Dipole_X_(debye)> (1)
0.356015775641047

>  <r_j_QM_Dipole_Y_(debye)> (1)
1.424378967666

>  <r_j_QM_Dipole_Z_(debye)> (1)
6.45848776383024e-05

>  <r_j_Lowest_Frequency_(cm-1)> (1)
180.838754856781

>  <r_j_Highest_Frequency_(cm-1)> (1)
3105.0030366192

>  <r_j_2nd_Lowest_Frequency_(cm-1)> (1)
210.761826519828

>  <i_j_Num_Negative_Frequencies> (1)
0

>  <r_j_Zero_Point_Energy_(kcal/mol)> (1)
88.5491440481045

>  <r_j_Entropy_(cal/mol/K)_298.15K_1.00E+00atm> (1)
85.7888235619805

>  <r_j_Enthalpy_(kcal/mol)_298.15K_1.00E+00atm> (1)
5.60708407186135

>  <r_j_Free_Energy_(kcal/mol)_298.15K_1.00E+00atm> (1)
-19.9708536731431

>  <r_j_Internal_Energy_(kcal/mol)_298.15K_1.00E+00atm> (1)
5.01459848303407

>  <r_j_Heat_Capacity_(cal/mol/K)_298.15K_1.00E+00atm> (1)
29.7244591261492

>  <r_j_ln(Q)_298.15K_1.00E+00atm> (1)
33.7069019900924

>  <r_j_Total_Internal_Energy_(au)_298.15K_1.00E+00atm> (1)
-364.021127021904

>  <r_j_Total_Enthalpy_(au)_298.15K_1.00E+00atm> (1)
-364.020182836012

>  <r_j_Total_Free_Energy_(au)_298.15K_1.00E+00atm> (1)
-364.060943874638

>  <r_lp_tautomer_probability> (1)
1

>  <r_epik_Ionization_Penalty> (1)
  0.0000

>  <r_epik_Ionization_Penalty_Charging> (1)
  0.0000

>  <r_epik_Ionization_Penalty_Neutral> (1)
  0.0000

>  <r_epik_State_Penalty> (1)
  0.0000

>  <r_epik_Charging_Adjusted_Penalty> (1)
0

>  <i_epik_Tot_Q> (1)
0

>  <i_epik_Tot_abs_Q> (1)
0

>  <s_lp_Force_Field> (1)
S-OPLS

>  <r_lp_Energy> (1)
0.33175

>  <b_lp_Chiralities_Consistent> (1)
1

$$$$
