3026_Dibutyl phthalate
                    3D
 Schrodinger Suite 2021-3.
 42 42  0  0  1  0            999 V2000
   -2.4862   -3.8831    0.7702 C   0  0  0  0  0  0
   -1.8344   -2.7562   -0.0345 C   0  0  0  0  0  0
   -2.3046   -1.3658    0.4114 C   0  0  0  0  0  0
   -1.6577   -0.2290   -0.3631 C   0  0  0  0  0  0
   -0.2290   -0.3569   -0.1916 O   0  0  0  0  0  0
    0.5269    0.6837   -0.5891 C   0  0  0  0  0  0
    0.0888    1.6693   -1.1461 O   0  0  0  0  0  0
    1.9811    0.4269   -0.3449 C   0  0  0  0  0  0
    2.8660    0.8558   -1.3382 C   0  0  0  0  0  0
    4.2252    0.5616   -1.2522 C   0  0  0  0  0  0
    4.7106   -0.1723   -0.1698 C   0  0  0  0  0  0
    3.8392   -0.5858    0.8360 C   0  0  0  0  0  0
    2.4783   -0.2750    0.7696 C   0  0  0  0  0  0
    1.6474   -0.6551    1.9555 C   0  0  0  0  0  0
    1.7827   -1.6826    2.5871 O   0  0  0  0  0  0
    0.7896    0.3285    2.2859 O   0  0  0  0  0  0
   -0.0912    0.0758    3.4030 C   0  0  0  0  0  0
   -1.1491    1.1672    3.3925 C   0  0  0  0  0  0
   -0.5691    2.5824    3.5102 C   0  0  0  0  0  0
   -1.6488    3.6664    3.4721 C   0  0  0  0  0  0
   -2.1347   -4.8646    0.4375 H   0  0  0  0  0  0
   -3.5778   -3.8668    0.6697 H   0  0  0  0  0  0
   -2.2495   -3.7902    1.8363 H   0  0  0  0  0  0
   -0.7452   -2.8090    0.0681 H   0  0  0  0  0  0
   -2.0527   -2.8848   -1.1035 H   0  0  0  0  0  0
   -3.3929   -1.2776    0.2944 H   0  0  0  0  0  0
   -2.0928   -1.2310    1.4797 H   0  0  0  0  0  0
   -1.8850   -0.2815   -1.4344 H   0  0  0  0  0  0
   -1.9739    0.7551   -0.0036 H   0  0  0  0  0  0
    2.4655    1.4076   -2.1821 H   0  0  0  0  0  0
    4.9012    0.8956   -2.0335 H   0  0  0  0  0  0
    5.7669   -0.4146   -0.1032 H   0  0  0  0  0  0
    4.2011   -1.1414    1.6948 H   0  0  0  0  0  0
   -0.5211   -0.9250    3.2983 H   0  0  0  0  0  0
    0.5023    0.0888    4.3247 H   0  0  0  0  0  0
   -1.7322    1.0837    2.4662 H   0  0  0  0  0  0
   -1.8445    0.9726    4.2197 H   0  0  0  0  0  0
    0.0053    2.6593    4.4435 H   0  0  0  0  0  0
    0.1442    2.7393    2.6939 H   0  0  0  0  0  0
   -1.2122    4.6666    3.5560 H   0  0  0  0  0  0
   -2.3663    3.5449    4.2921 H   0  0  0  0  0  0
   -2.2100    3.6274    2.5315 H   0  0  0  0  0  0
  1  2  1  0  0  0
  1 21  1  0  0  0
  1 22  1  0  0  0
  1 23  1  0  0  0
  2  3  1  0  0  0
  2 24  1  0  0  0
  2 25  1  0  0  0
  3  4  1  0  0  0
  3 26  1  0  0  0
  3 27  1  0  0  0
  4  5  1  0  0  0
  4 28  1  0  0  0
  4 29  1  0  0  0
  5  6  1  0  0  0
  6  7  2  0  0  0
  6  8  1  0  0  0
  8 13  1  0  0  0
  8  9  2  0  0  0
  9 10  1  0  0  0
  9 30  1  0  0  0
 10 11  2  0  0  0
 10 31  1  0  0  0
 11 12  1  0  0  0
 11 32  1  0  0  0
 12 13  2  0  0  0
 12 33  1  0  0  0
 13 14  1  0  0  0
 14 15  2  0  0  0
 14 16  1  0  0  0
 16 17  1  0  0  0
 17 18  1  0  0  0
 17 34  1  0  0  0
 17 35  1  0  0  0
 18 19  1  0  0  0
 18 36  1  0  0  0
 18 37  1  0  0  0
 19 20  1  0  0  0
 19 38  1  0  0  0
 19 39  1  0  0  0
 20 40  1  0  0  0
 20 41  1  0  0  0
 20 42  1  0  0  0
M  END
>  <i_m_Spin_multiplicity> (1)
1

>  <s_j_Task> (1)
Single Point

>  <s_j_QM_Method> (1)
DFT(b3lyp-d3)

>  <s_j_QM_Basis> (1)
cc-pvtz(-f)

>  <i_j_Number_of_canonical_orbitals> (1)
651

>  <i_j_Geometry_convergence_category> (1)
3

>  <r_j_Gas_Phase_Energy> (1)
-924.237904216036

>  <r_j_Final_Energy> (1)
-924.237904216036

>  <r_j_HOMO> (1)
-0.268509563514383

>  <r_j_LUMO> (1)
-0.0659473952316594

>  <r_j_Polarizability> (1)
198.806904137525

>  <r_j_QM_Dipole_(debye)> (1)
0.289911930190922

>  <r_j_QM_Dipole_X_(debye)> (1)
-0.218729012770513

>  <r_j_QM_Dipole_Y_(debye)> (1)
0.0249259203978262

>  <r_j_QM_Dipole_Z_(debye)> (1)
0.188640517206098

>  <r_j_Lowest_Frequency_(cm-1)> (1)
38.2546698489828

>  <r_j_Highest_Frequency_(cm-1)> (1)
3159.86208173316

>  <r_j_2nd_Lowest_Frequency_(cm-1)> (1)
47.2391074223091

>  <i_j_Num_Negative_Frequencies> (1)
0

>  <r_j_Zero_Point_Energy_(kcal/mol)> (1)
223.605532676456

>  <r_j_Entropy_(cal/mol/K)_298.15K_1.00E+00atm> (1)
141.627302000145

>  <r_j_Enthalpy_(kcal/mol)_298.15K_1.00E+00atm> (1)
12.9683209923328

>  <r_j_Free_Energy_(kcal/mol)_298.15K_1.00E+00atm> (1)
-29.2578590990104

>  <r_j_Internal_Energy_(kcal/mol)_298.15K_1.00E+00atm> (1)
12.3758354035055

>  <r_j_Heat_Capacity_(cal/mol/K)_298.15K_1.00E+00atm> (1)
75.640404425027

>  <r_j_ln(Q)_298.15K_1.00E+00atm> (1)
49.3815540001933

>  <r_j_Total_Internal_Energy_(au)_298.15K_1.00E+00atm> (1)
-923.861843966172

>  <r_j_Total_Enthalpy_(au)_298.15K_1.00E+00atm> (1)
-923.86089978028

>  <r_j_Total_Free_Energy_(au)_298.15K_1.00E+00atm> (1)
-923.928191482015

>  <r_lp_tautomer_probability> (1)
1

>  <r_epik_Ionization_Penalty> (1)
  0.0000

>  <r_epik_Ionization_Penalty_Charging> (1)
  0.0000

>  <r_epik_Ionization_Penalty_Neutral> (1)
  0.0000

>  <r_epik_State_Penalty> (1)
  0.0000

>  <r_epik_Charging_Adjusted_Penalty> (1)
0

>  <i_epik_Tot_Q> (1)
0

>  <i_epik_Tot_abs_Q> (1)
0

>  <s_lp_Force_Field> (1)
S-OPLS

>  <r_lp_Energy> (1)
16.797993

>  <b_lp_Chiralities_Consistent> (1)
1

>  <s_epik_Chemistry_Notes> (1)
This compound has an ester and may undergo hydrolysis at high or low pH.

$$$$
