3032811_Docosenoic acid
                    3D
 Schrodinger Suite 2021-3.
 65 64  0  0  1  0            999 V2000
   -7.3435    8.0888    1.7972 C   0  0  0  0  0  0
   -6.6207    6.7432    1.6822 C   0  0  0  0  0  0
   -7.1027    5.9088    0.4871 C   0  0  0  0  0  0
   -6.4695    4.5120    0.3909 C   0  0  0  0  0  0
   -4.9590    4.5129    0.1204 C   0  0  0  0  0  0
   -4.3654    3.1035    0.0135 C   0  0  0  0  0  0
   -2.8515    3.0941   -0.2290 C   0  0  0  0  0  0
   -2.2495    1.6847   -0.2574 C   0  0  0  0  0  0
   -0.7291    1.6686   -0.4543 C   0  0  0  0  0  0
   -0.1263    0.2604   -0.3933 C   0  0  0  0  0  0
    1.4006    0.2346   -0.5304 C   0  0  0  0  0  0
    1.9959   -1.1699   -0.3769 C   0  0  0  0  0  0
    3.5268   -1.2060   -0.4510 C   0  0  0  0  0  0
    4.1092   -2.6039   -0.2112 C   0  0  0  0  0  0
    5.6414   -2.6472   -0.2329 C   0  0  0  0  0  0
    6.2061   -4.0427    0.0666 C   0  0  0  0  0  0
    7.7396   -4.1049    0.1468 C   0  0  0  0  0  0
    8.4582   -3.8020   -1.1736 C   0  0  0  0  0  0
    9.9796   -3.9592   -1.0838 C   0  0  0  0  0  0
   10.7422   -3.6768   -2.3545 C   0  0  0  0  0  0
   10.2497   -3.3122   -3.5417 C   0  0  0  0  0  0
   11.1338   -3.0498   -4.7827 C   0  0  0  0  0  0
   10.4855   -2.7098   -5.8071 O   0  0  0  0  0  0
   12.3728   -3.2038   -4.6256 O   0  5  0  0  0  0
   -6.9829    8.6683    2.6537 H   0  0  0  0  0  0
   -8.4237    7.9477    1.9200 H   0  0  0  0  0  0
   -7.1914    8.6954    0.8969 H   0  0  0  0  0  0
   -5.5411    6.9194    1.6026 H   0  0  0  0  0  0
   -6.7676    6.1656    2.6056 H   0  0  0  0  0  0
   -8.1945    5.8015    0.5517 H   0  0  0  0  0  0
   -6.9076    6.4630   -0.4425 H   0  0  0  0  0  0
   -6.6686    3.9618    1.3222 H   0  0  0  0  0  0
   -6.9705    3.9464   -0.4065 H   0  0  0  0  0  0
   -4.7568    5.0685   -0.8068 H   0  0  0  0  0  0
   -4.4365    5.0556    0.9190 H   0  0  0  0  0  0
   -4.5855    2.5505    0.9383 H   0  0  0  0  0  0
   -4.8692    2.5528   -0.7938 H   0  0  0  0  0  0
   -2.6283    3.6092   -1.1742 H   0  0  0  0  0  0
   -2.3565    3.6806    0.5585 H   0  0  0  0  0  0
   -2.4950    1.1720    0.6841 H   0  0  0  0  0  0
   -2.7284    1.0971   -1.0538 H   0  0  0  0  0  0
   -0.4775    2.1367   -1.4165 H   0  0  0  0  0  0
   -0.2592    2.2947    0.3181 H   0  0  0  0  0  0
   -0.4080   -0.2070    0.5617 H   0  0  0  0  0  0
   -0.5754   -0.3650   -1.1782 H   0  0  0  0  0  0
    1.6907    0.6543   -1.5040 H   0  0  0  0  0  0
    1.8418    0.8975    0.2280 H   0  0  0  0  0  0
    1.6736   -1.5901    0.5873 H   0  0  0  0  0  0
    1.5765   -1.8315   -1.1484 H   0  0  0  0  0  0
    3.8578   -0.8323   -1.4300 H   0  0  0  0  0  0
    3.9407   -0.5104    0.2936 H   0  0  0  0  0  0
    3.7498   -2.9795    0.7587 H   0  0  0  0  0  0
    3.7143   -3.2977   -0.9675 H   0  0  0  0  0  0
    6.0003   -2.3009   -1.2097 H   0  0  0  0  0  0
    6.0350   -1.9336    0.5060 H   0  0  0  0  0  0
    5.7790   -4.3965    1.0168 H   0  0  0  0  0  0
    5.8560   -4.7446   -0.7042 H   0  0  0  0  0  0
    8.0881   -3.4070    0.9231 H   0  0  0  0  0  0
    8.0334   -5.1070    0.4901 H   0  0  0  0  0  0
    8.0734   -4.4662   -1.9592 H   0  0  0  0  0  0
    8.2298   -2.7824   -1.5059 H   0  0  0  0  0  0
   10.3543   -3.3053   -0.2768 H   0  0  0  0  0  0
   10.2090   -4.9821   -0.7370 H   0  0  0  0  0  0
   11.8274   -3.7813   -2.3105 H   0  0  0  0  0  0
    9.1783   -3.1778   -3.7010 H   0  0  0  0  0  0
  1  2  1  0  0  0
  1 25  1  0  0  0
  1 26  1  0  0  0
  1 27  1  0  0  0
  2  3  1  0  0  0
  2 28  1  0  0  0
  2 29  1  0  0  0
  3  4  1  0  0  0
  3 30  1  0  0  0
  3 31  1  0  0  0
  4  5  1  0  0  0
  4 32  1  0  0  0
  4 33  1  0  0  0
  5  6  1  0  0  0
  5 34  1  0  0  0
  5 35  1  0  0  0
  6  7  1  0  0  0
  6 36  1  0  0  0
  6 37  1  0  0  0
  7  8  1  0  0  0
  7 38  1  0  0  0
  7 39  1  0  0  0
  8  9  1  0  0  0
  8 40  1  0  0  0
  8 41  1  0  0  0
  9 10  1  0  0  0
  9 42  1  0  0  0
  9 43  1  0  0  0
 10 11  1  0  0  0
 10 44  1  0  0  0
 10 45  1  0  0  0
 11 12  1  0  0  0
 11 46  1  0  0  0
 11 47  1  0  0  0
 12 13  1  0  0  0
 12 48  1  0  0  0
 12 49  1  0  0  0
 13 14  1  0  0  0
 13 50  1  0  0  0
 13 51  1  0  0  0
 14 15  1  0  0  0
 14 52  1  0  0  0
 14 53  1  0  0  0
 15 16  1  0  0  0
 15 54  1  0  0  0
 15 55  1  0  0  0
 16 17  1  0  0  0
 16 56  1  0  0  0
 16 57  1  0  0  0
 17 18  1  0  0  0
 17 58  1  0  0  0
 17 59  1  0  0  0
 18 19  1  0  0  0
 18 60  1  0  0  0
 18 61  1  0  0  0
 19 20  1  0  0  0
 19 62  1  0  0  0
 19 63  1  0  0  0
 20 21  2  0  0  0
 20 64  1  0  0  0
 21 22  1  0  0  0
 21 65  1  0  0  0
 22 23  2  0  0  0
 22 24  1  0  0  0
M  END
>  <s_lp_Force_Field> (1)
S-OPLS

>  <r_lp_Energy> (1)
13.577756

>  <b_lp_Chiralities_Consistent> (1)
1

>  <r_epik_Ionization_Penalty> (1)
  0.0030

>  <r_epik_Ionization_Penalty_Charging> (1)
  0.0030

>  <r_epik_Ionization_Penalty_Neutral> (1)
  0.0000

>  <r_epik_State_Penalty> (1)
  0.0021

>  <r_epik_Charging_Adjusted_Penalty> (1)
0.00507066606519717

>  <i_epik_Tot_Q> (1)
-1

>  <i_epik_Tot_abs_Q> (1)
1

>  <i_m_Spin_multiplicity> (1)
1

>  <s_j_Task> (1)
Single Point

>  <s_j_QM_Method> (1)
DFT(b3lyp-d3)

>  <s_j_QM_Basis> (1)
6-31g**

>  <i_j_Number_of_canonical_orbitals> (1)
565

>  <i_j_Geometry_convergence_category> (1)
4

>  <r_j_Gas_Phase_Energy> (1)
-1013.66112397979

>  <r_j_Final_Energy> (1)
-1013.66112397979

>  <r_j_HOMO> (1)
-0.00904133164423204

>  <r_j_LUMO> (1)
0.120575163820894

>  <r_j_Polarizability> (1)
250.126532713797

>  <r_j_QM_Dipole_(debye)> (1)
47.2278730268555

>  <r_j_QM_Dipole_X_(debye)> (1)
-40.9474648017908

>  <r_j_QM_Dipole_Y_(debye)> (1)
14.4105469847273

>  <r_j_QM_Dipole_Z_(debye)> (1)
18.6041192360148

>  <r_j_Lowest_Frequency_(cm-1)> (1)
-4.38988662266039

>  <r_j_Highest_Frequency_(cm-1)> (1)
3136.04520109014

>  <r_j_2nd_Lowest_Frequency_(cm-1)> (1)
14.6033502379854

>  <i_j_Num_Negative_Frequencies> (1)
1

>  <r_j_Zero_Point_Energy_(kcal/mol)> (1)
375.4246762479

>  <r_j_Entropy_(cal/mol/K)_298.15K_1.00E+00atm> (1)
182.476229808476

>  <r_j_Enthalpy_(kcal/mol)_298.15K_1.00E+00atm> (1)
18.2064248716377

>  <r_j_Free_Energy_(kcal/mol)_298.15K_1.00E+00atm> (1)
-36.1988630457596

>  <r_j_Internal_Energy_(kcal/mol)_298.15K_1.00E+00atm> (1)
17.6139392828104

>  <r_j_Heat_Capacity_(cal/mol/K)_298.15K_1.00E+00atm> (1)
104.949997759016

>  <r_j_ln(Q)_298.15K_1.00E+00atm> (1)
61.096613535207

>  <r_j_Total_Internal_Energy_(au)_298.15K_1.00E+00atm> (1)
-1013.03477707298

>  <r_j_Total_Enthalpy_(au)_298.15K_1.00E+00atm> (1)
-1013.03383288708

>  <r_j_Total_Free_Energy_(au)_298.15K_1.00E+00atm> (1)
-1013.12053323269

$$$$
