3035468_Methyl eicosenoate
                    3D
 Schrodinger Suite 2021-3.
 63 62  0  0  1  0            999 V2000
   -9.4533    3.3058   -1.1830 C   0  0  0  0  0  0
   -8.3101    4.2277   -0.7489 C   0  0  0  0  0  0
   -6.9271    3.7097   -1.1628 C   0  0  0  0  0  0
   -5.7849    4.6293   -0.7124 C   0  0  0  0  0  0
   -4.3864    4.1916   -1.1728 C   0  0  0  0  0  0
   -3.9243    2.8382   -0.6144 C   0  0  0  0  0  0
   -2.4544    2.5348   -0.9266 C   0  0  0  0  0  0
   -1.9788    1.1736   -0.4047 C   0  0  0  0  0  0
   -0.4768    0.9468   -0.6088 C   0  0  0  0  0  0
    0.0215   -0.4174   -0.1171 C   0  0  0  0  0  0
    1.5454   -0.5581   -0.2048 C   0  0  0  0  0  0
    2.0707   -1.9308    0.2369 C   0  0  0  0  0  0
    3.6061   -2.0226    0.2631 C   0  0  0  0  0  0
    4.2505   -1.2597    1.4292 C   0  0  0  0  0  0
    5.7805   -1.2182    1.3605 C   0  0  0  0  0  0
    6.4138   -0.5263    2.5737 C   0  0  0  0  0  0
    7.9410   -0.3307    2.4431 C   0  0  0  0  0  0
    8.2883    0.6713    1.3831 C   0  0  0  0  0  0
    8.9796    0.4098    0.2667 C   0  0  0  0  0  0
    9.2787    1.3957   -0.7930 C   0  0  0  0  0  0
    9.9033    1.1330   -1.8030 O   0  0  0  0  0  0
    8.7788    2.6315   -0.5330 O   0  0  0  0  0  0
    9.0392    3.6123   -1.5484 C   0  0  0  0  0  0
  -10.4277    3.7002   -0.8761 H   0  0  0  0  0  0
   -9.3437    2.3080   -0.7427 H   0  0  0  0  0  0
   -9.4703    3.1848   -2.2723 H   0  0  0  0  0  0
   -8.4628    5.2293   -1.1739 H   0  0  0  0  0  0
   -8.3350    4.3552    0.3421 H   0  0  0  0  0  0
   -6.7842    2.7033   -0.7475 H   0  0  0  0  0  0
   -6.8929    3.5950   -2.2562 H   0  0  0  0  0  0
   -5.9801    5.6438   -1.0861 H   0  0  0  0  0  0
   -5.7953    4.7040    0.3847 H   0  0  0  0  0  0
   -4.3568    4.1582   -2.2714 H   0  0  0  0  0  0
   -3.6618    4.9617   -0.8745 H   0  0  0  0  0  0
   -4.0709    2.8268    0.4756 H   0  0  0  0  0  0
   -4.5535    2.0320   -1.0138 H   0  0  0  0  0  0
   -2.2928    2.5836   -2.0131 H   0  0  0  0  0  0
   -1.8262    3.3267   -0.4936 H   0  0  0  0  0  0
   -2.2128    1.0924    0.6666 H   0  0  0  0  0  0
   -2.5455    0.3723   -0.9000 H   0  0  0  0  0  0
   -0.2305    1.0599   -1.6743 H   0  0  0  0  0  0
    0.0765    1.7411   -0.0870 H   0  0  0  0  0  0
   -0.2947   -0.5679    0.9252 H   0  0  0  0  0  0
   -0.4602   -1.2164   -0.6985 H   0  0  0  0  0  0
    1.8720   -0.3672   -1.2372 H   0  0  0  0  0  0
    2.0036    0.2316    0.4053 H   0  0  0  0  0  0
    1.6766   -2.1712    1.2351 H   0  0  0  0  0  0
    1.6693   -2.6967   -0.4396 H   0  0  0  0  0  0
    3.9112   -3.0757    0.3207 H   0  0  0  0  0  0
    4.0064   -1.6429   -0.6881 H   0  0  0  0  0  0
    3.8752   -0.2282    1.4556 H   0  0  0  0  0  0
    3.9335   -1.7201    2.3761 H   0  0  0  0  0  0
    6.1787   -2.2398    1.2791 H   0  0  0  0  0  0
    6.0866   -0.7004    0.4420 H   0  0  0  0  0  0
    5.9405    0.4540    2.7259 H   0  0  0  0  0  0
    6.2056   -1.1099    3.4792 H   0  0  0  0  0  0
    8.3348    0.0229    3.4061 H   0  0  0  0  0  0
    8.4244   -1.2925    2.2326 H   0  0  0  0  0  0
    7.9125    1.6826    1.5341 H   0  0  0  0  0  0
    9.3705   -0.5822    0.0595 H   0  0  0  0  0  0
    8.5770    4.5343   -1.1947 H   0  0  0  0  0  0
    8.6031    3.3061   -2.5034 H   0  0  0  0  0  0
   10.1150    3.7505   -1.6874 H   0  0  0  0  0  0
  1  2  1  0  0  0
  1 24  1  0  0  0
  1 25  1  0  0  0
  1 26  1  0  0  0
  2  3  1  0  0  0
  2 27  1  0  0  0
  2 28  1  0  0  0
  3  4  1  0  0  0
  3 29  1  0  0  0
  3 30  1  0  0  0
  4  5  1  0  0  0
  4 31  1  0  0  0
  4 32  1  0  0  0
  5  6  1  0  0  0
  5 33  1  0  0  0
  5 34  1  0  0  0
  6  7  1  0  0  0
  6 35  1  0  0  0
  6 36  1  0  0  0
  7  8  1  0  0  0
  7 37  1  0  0  0
  7 38  1  0  0  0
  8  9  1  0  0  0
  8 39  1  0  0  0
  8 40  1  0  0  0
  9 10  1  0  0  0
  9 41  1  0  0  0
  9 42  1  0  0  0
 10 11  1  0  0  0
 10 43  1  0  0  0
 10 44  1  0  0  0
 11 12  1  0  0  0
 11 45  1  0  0  0
 11 46  1  0  0  0
 12 13  1  0  0  0
 12 47  1  0  0  0
 12 48  1  0  0  0
 13 14  1  0  0  0
 13 49  1  0  0  0
 13 50  1  0  0  0
 14 15  1  0  0  0
 14 51  1  0  0  0
 14 52  1  0  0  0
 15 16  1  0  0  0
 15 53  1  0  0  0
 15 54  1  0  0  0
 16 17  1  0  0  0
 16 55  1  0  0  0
 16 56  1  0  0  0
 17 18  1  0  0  0
 17 57  1  0  0  0
 17 58  1  0  0  0
 18 19  2  0  0  0
 18 59  1  0  0  0
 19 20  1  0  0  0
 19 60  1  0  0  0
 20 21  2  0  0  0
 20 22  1  0  0  0
 22 23  1  0  0  0
 23 61  1  0  0  0
 23 62  1  0  0  0
 23 63  1  0  0  0
M  END
>  <i_m_Spin_multiplicity> (1)
1

>  <s_j_Task> (1)
Single Point

>  <s_j_QM_Method> (1)
DFT(b3lyp-d3)

>  <s_j_QM_Basis> (1)
cc-pvtz(-f)

>  <i_j_Number_of_canonical_orbitals> (1)
882

>  <i_j_Geometry_convergence_category> (1)
4

>  <r_j_Gas_Phase_Energy> (1)
-975.189698452681

>  <r_j_Final_Energy> (1)
-975.189698452681

>  <r_j_HOMO> (1)
-0.266079861935884

>  <r_j_LUMO> (1)
-0.0458940890046732

>  <r_j_Polarizability> (1)
266.760735524556

>  <r_j_QM_Dipole_(debye)> (1)
2.73385067670264

>  <r_j_QM_Dipole_X_(debye)> (1)
-1.65581828562742

>  <r_j_QM_Dipole_Y_(debye)> (1)
0.641150220310557

>  <r_j_QM_Dipole_Z_(debye)> (1)
2.07873320137171

>  <r_j_Lowest_Frequency_(cm-1)> (1)
18.5558219791689

>  <r_j_Highest_Frequency_(cm-1)> (1)
3139.99897358581

>  <r_j_2nd_Lowest_Frequency_(cm-1)> (1)
31.2947819149738

>  <i_j_Num_Negative_Frequencies> (1)
0

>  <r_j_Zero_Point_Energy_(kcal/mol)> (1)
363.545994906718

>  <r_j_Entropy_(cal/mol/K)_298.15K_1.00E+00atm> (1)
174.54415281345

>  <r_j_Enthalpy_(kcal/mol)_298.15K_1.00E+00atm> (1)
17.4947218002946

>  <r_j_Free_Energy_(kcal/mol)_298.15K_1.00E+00atm> (1)
-34.5456173610355

>  <r_j_Internal_Energy_(kcal/mol)_298.15K_1.00E+00atm> (1)
16.9022362114673

>  <r_j_Heat_Capacity_(cal/mol/K)_298.15K_1.00E+00atm> (1)
102.695315334905

>  <r_j_ln(Q)_298.15K_1.00E+00atm> (1)
58.3062575908601

>  <r_j_Total_Internal_Energy_(au)_298.15K_1.00E+00atm> (1)
-974.583415600698

>  <r_j_Total_Enthalpy_(au)_298.15K_1.00E+00atm> (1)
-974.582471414806

>  <r_j_Total_Free_Energy_(au)_298.15K_1.00E+00atm> (1)
-974.665402974646

>  <r_lp_tautomer_probability> (1)
1

>  <r_epik_Ionization_Penalty> (1)
  0.0000

>  <r_epik_Ionization_Penalty_Charging> (1)
  0.0000

>  <r_epik_Ionization_Penalty_Neutral> (1)
  0.0000

>  <r_epik_State_Penalty> (1)
  0.0000

>  <r_epik_Charging_Adjusted_Penalty> (1)
0

>  <i_epik_Tot_Q> (1)
0

>  <i_epik_Tot_abs_Q> (1)
0

>  <s_lp_Force_Field> (1)
S-OPLS

>  <r_lp_Energy> (1)
9.67921

>  <b_lp_Chiralities_Consistent> (1)
1

>  <s_epik_Chemistry_Notes> (1)
This compound has an ester and may undergo hydrolysis at high or low pH.

$$$$
