3039_Dichlorvos
                    3D
 Schrodinger Suite 2021-3.
 18 17  0  0  1  0            999 V2000
   -0.4796    1.5964    0.6189 C   0  0  0  0  0  0
    0.0366    0.3241    0.1665 O   0  0  0  0  0  0
    1.6172    0.0835    0.2067 P   0  0  1  0  0  0
    2.3315    0.5314    1.4215 O   0  0  0  0  0  0
    1.7346   -1.4512   -0.2114 O   0  0  0  0  0  0
    1.3927   -2.4573    0.7697 C   0  0  0  0  0  0
    2.1067    0.8098   -1.1707 O   0  0  0  0  0  0
    3.3677    1.3487   -1.2480 C   0  0  0  0  0  0
    3.8656    1.7538   -2.4193 C   0  0  0  0  0  0
    5.4501    2.4766   -2.4968 Cl  0  0  0  0  0  0
    3.0034    1.6143   -3.9181 Cl  0  0  0  0  0  0
   -1.5626    1.4840    0.6708 H   0  0  0  0  0  0
   -0.2236    2.3805   -0.1000 H   0  0  0  0  0  0
   -0.0765    1.8438    1.6044 H   0  0  0  0  0  0
    1.7182   -3.4102    0.3527 H   0  0  0  0  0  0
    0.3108   -2.4712    0.9291 H   0  0  0  0  0  0
    1.9112   -2.2655    1.7132 H   0  0  0  0  0  0
    3.9194    1.4482   -0.3195 H   0  0  0  0  0  0
  1  2  1  0  0  0
  1 12  1  0  0  0
  1 13  1  0  0  0
  1 14  1  0  0  0
  2  3  1  0  0  0
  3  4  2  0  0  0
  3  5  1  0  0  0
  3  7  1  0  0  0
  5  6  1  0  0  0
  6 15  1  0  0  0
  6 16  1  0  0  0
  6 17  1  0  0  0
  7  8  1  0  0  0
  8  9  2  0  0  0
  8 18  1  0  0  0
  9 10  1  0  0  0
  9 11  1  0  0  0
M  END
>  <i_m_Spin_multiplicity> (1)
1

>  <s_j_Task> (1)
Single Point

>  <s_j_QM_Method> (1)
DFT(b3lyp-d3)

>  <s_j_QM_Basis> (1)
cc-pvtz(-f)

>  <i_j_Number_of_canonical_orbitals> (1)
327

>  <i_j_Geometry_convergence_category> (1)
0

>  <r_j_Gas_Phase_Energy> (1)
-1719.61018762709

>  <r_j_Final_Energy> (1)
-1719.61018762709

>  <r_j_HOMO> (1)
-0.230312120878268

>  <r_j_LUMO> (1)
0.00224770528128345

>  <r_j_Polarizability> (1)
106.898474711043

>  <r_j_QM_Dipole_(debye)> (1)
3.05505595585296

>  <r_j_QM_Dipole_X_(debye)> (1)
-2.51568186288869

>  <r_j_QM_Dipole_Y_(debye)> (1)
-1.09610223790562

>  <r_j_QM_Dipole_Z_(debye)> (1)
1.34285946479287

>  <r_j_Lowest_Frequency_(cm-1)> (1)
40.4625649775145

>  <r_j_Highest_Frequency_(cm-1)> (1)
3162.52187255687

>  <r_j_2nd_Lowest_Frequency_(cm-1)> (1)
46.5365813880206

>  <i_j_Num_Negative_Frequencies> (1)
0

>  <r_j_Zero_Point_Energy_(kcal/mol)> (1)
75.6557569443367

>  <r_j_Entropy_(cal/mol/K)_298.15K_1.00E+00atm> (1)
112.751391610399

>  <r_j_Enthalpy_(kcal/mol)_298.15K_1.00E+00atm> (1)
8.64014871037696

>  <r_j_Free_Energy_(kcal/mol)_298.15K_1.00E+00atm> (1)
-24.9766786982636

>  <r_j_Internal_Energy_(kcal/mol)_298.15K_1.00E+00atm> (1)
8.04766312154968

>  <r_j_Heat_Capacity_(cal/mol/K)_298.15K_1.00E+00atm> (1)
44.3526142591323

>  <r_j_ln(Q)_298.15K_1.00E+00atm> (1)
42.1557573201076

>  <r_j_Total_Internal_Energy_(au)_298.15K_1.00E+00atm> (1)
-1719.47679773567

>  <r_j_Total_Enthalpy_(au)_298.15K_1.00E+00atm> (1)
-1719.47585354978

>  <r_j_Total_Free_Energy_(au)_298.15K_1.00E+00atm> (1)
-1719.52942537462

>  <r_lp_tautomer_probability> (1)
1

>  <r_epik_Ionization_Penalty> (1)
  0.0000

>  <r_epik_Ionization_Penalty_Charging> (1)
  0.0000

>  <r_epik_Ionization_Penalty_Neutral> (1)
  0.0000

>  <r_epik_State_Penalty> (1)
  0.0000

>  <r_epik_Charging_Adjusted_Penalty> (1)
0

>  <i_epik_Tot_Q> (1)
0

>  <i_epik_Tot_abs_Q> (1)
0

>  <s_lp_Force_Field> (1)
S-OPLS

>  <r_lp_Energy> (1)
0.20611

>  <b_lp_Chiralities_Consistent> (1)
1

$$$$
