3082_Dimethoate
                    3D
 Schrodinger Suite 2021-3.
 24 23  0  0  1  0            999 V2000
   -2.8890    4.2382    0.0288 C   0  0  0  0  0  0
   -1.5624    3.6575   -0.1028 N   0  0  0  0  0  0
   -1.3091    2.3411    0.1513 C   0  0  0  0  0  0
   -2.1595    1.5450    0.5231 O   0  0  0  0  0  0
    0.1549    1.9457   -0.0683 C   0  0  0  0  0  0
    0.3209    0.1316    0.2252 S   0  0  0  0  0  0
    2.3971   -0.0389   -0.0015 P   0  0  1  0  0  0
    3.0710   -1.8514    0.1623 S   0  0  0  0  0  0
    2.6446    0.7617   -1.3931 O   0  0  0  0  0  0
    4.0003    1.0048   -1.8267 C   0  0  0  0  0  0
    3.0563    1.0640    1.0144 O   0  0  0  0  0  0
    3.1868    0.7462    2.4125 C   0  0  0  0  0  0
   -2.8973    5.0414    0.7736 H   0  0  0  0  0  0
   -3.5639    3.4459    0.3534 H   0  0  0  0  0  0
   -3.2419    4.6376   -0.9282 H   0  0  0  0  0  0
   -0.8085    4.2448   -0.4264 H   0  0  0  0  0  0
    0.4726    2.1769   -1.0886 H   0  0  0  0  0  0
    0.8073    2.4905    0.6211 H   0  0  0  0  0  0
    4.5088    1.6717   -1.1248 H   0  0  0  0  0  0
    3.9231    1.4787   -2.8060 H   0  0  0  0  0  0
    4.5497    0.0629   -1.9129 H   0  0  0  0  0  0
    2.2018    0.5843    2.8637 H   0  0  0  0  0  0
    3.6667    1.6093    2.8761 H   0  0  0  0  0  0
    3.8034   -0.1466    2.5492 H   0  0  0  0  0  0
  1  2  1  0  0  0
  1 13  1  0  0  0
  1 14  1  0  0  0
  1 15  1  0  0  0
  2  3  1  0  0  0
  2 16  1  0  0  0
  3  4  2  0  0  0
  3  5  1  0  0  0
  5  6  1  0  0  0
  5 17  1  0  0  0
  5 18  1  0  0  0
  6  7  1  0  0  0
  7  8  2  0  0  0
  7  9  1  0  0  0
  7 11  1  0  0  0
  9 10  1  0  0  0
 10 19  1  0  0  0
 10 20  1  0  0  0
 10 21  1  0  0  0
 11 12  1  0  0  0
 12 22  1  0  0  0
 12 23  1  0  0  0
 12 24  1  0  0  0
M  END
>  <i_m_Spin_multiplicity> (1)
1

>  <s_j_Task> (1)
Single Point

>  <s_j_QM_Method> (1)
DFT(b3lyp-d3)

>  <s_j_QM_Basis> (1)
cc-pvtz(-f)

>  <i_j_Number_of_canonical_orbitals> (1)
395

>  <i_j_Geometry_convergence_category> (1)
3

>  <r_j_Gas_Phase_Energy> (1)
-1616.27747243138

>  <r_j_Final_Energy> (1)
-1616.27747243138

>  <r_j_HOMO> (1)
-0.242687467470811

>  <r_j_LUMO> (1)
-0.00219774899844158

>  <r_j_Polarizability> (1)
142.675589500573

>  <r_j_QM_Dipole_(debye)> (1)
7.0631664668706

>  <r_j_QM_Dipole_X_(debye)> (1)
1.49288506036967

>  <r_j_QM_Dipole_Y_(debye)> (1)
6.88845312165748

>  <r_j_QM_Dipole_Z_(debye)> (1)
-0.456977380159822

>  <r_j_Lowest_Frequency_(cm-1)> (1)
41.9085383140341

>  <r_j_Highest_Frequency_(cm-1)> (1)
3583.95042231901

>  <r_j_2nd_Lowest_Frequency_(cm-1)> (1)
66.834974649423

>  <i_j_Num_Negative_Frequencies> (1)
0

>  <r_j_Zero_Point_Energy_(kcal/mol)> (1)
115.362429409599

>  <r_j_Entropy_(cal/mol/K)_298.15K_1.00E+00atm> (1)
123.644499664805

>  <r_j_Enthalpy_(kcal/mol)_298.15K_1.00E+00atm> (1)
10.2682737000607

>  <r_j_Free_Energy_(kcal/mol)_298.15K_1.00E+00atm> (1)
-26.5963338750009

>  <r_j_Internal_Energy_(kcal/mol)_298.15K_1.00E+00atm> (1)
9.67578811123348

>  <r_j_Heat_Capacity_(cal/mol/K)_298.15K_1.00E+00atm> (1)
53.8043072222893

>  <r_j_ln(Q)_298.15K_1.00E+00atm> (1)
44.8894190450165

>  <r_j_Total_Internal_Energy_(au)_298.15K_1.00E+00atm> (1)
-1616.07821134689

>  <r_j_Total_Enthalpy_(au)_298.15K_1.00E+00atm> (1)
-1616.077267161

>  <r_j_Total_Free_Energy_(au)_298.15K_1.00E+00atm> (1)
-1616.13601465301

>  <r_lp_tautomer_probability> (1)
1

>  <r_epik_Ionization_Penalty> (1)
  0.0000

>  <r_epik_Ionization_Penalty_Charging> (1)
  0.0000

>  <r_epik_Ionization_Penalty_Neutral> (1)
  0.0000

>  <r_epik_State_Penalty> (1)
  0.0000

>  <r_epik_Charging_Adjusted_Penalty> (1)
0

>  <i_epik_Tot_Q> (1)
0

>  <i_epik_Tot_abs_Q> (1)
0

>  <s_lp_Force_Field> (1)
S-OPLS

>  <r_lp_Energy> (1)
0.538503

>  <b_lp_Chiralities_Consistent> (1)
1

$$$$
