3084462_Hexacosanal
                    3D
 Schrodinger Suite 2021-3.
 79 78  0  0  1  0            999 V2000
  -11.7947   -2.9220    6.5371 C   0  0  0  0  0  0
  -10.3007   -2.6063    6.4200 C   0  0  0  0  0  0
   -9.9411   -1.8499    5.1350 C   0  0  0  0  0  0
   -8.4449   -1.5396    5.0186 C   0  0  0  0  0  0
   -8.0588   -0.7947    3.7348 C   0  0  0  0  0  0
   -6.5535   -0.5220    3.6405 C   0  0  0  0  0  0
   -6.1166    0.1915    2.3551 C   0  0  0  0  0  0
   -4.5982    0.3910    2.2889 C   0  0  0  0  0  0
   -4.0898    1.0467    0.9990 C   0  0  0  0  0  0
   -2.5588    1.1283    0.9629 C   0  0  0  0  0  0
   -1.9788    1.7059   -0.3356 C   0  0  0  0  0  0
   -0.4392    1.7308   -0.3648 C   0  0  0  0  0  0
    0.1952    0.3333   -0.3679 C   0  0  0  0  0  0
    1.7279    0.3371   -0.2935 C   0  0  0  0  0  0
    2.3514   -1.0710   -0.2962 C   0  0  0  0  0  0
    1.8999   -1.9456    0.8812 C   0  0  0  0  0  0
    2.5455   -3.3360    0.9328 C   0  0  0  0  0  0
    1.9303   -4.2048    2.0369 C   0  0  0  0  0  0
    2.4971   -5.6255    2.1394 C   0  0  0  0  0  0
    1.7416   -6.4707    3.1724 C   0  0  0  0  0  0
    2.2663   -7.9017    3.3333 C   0  0  0  0  0  0
    1.4097   -8.7270    4.3042 C   0  0  0  0  0  0
    1.8631  -10.1817    4.4942 C   0  0  0  0  0  0
    3.2058  -10.3276    5.2225 C   0  0  0  0  0  0
    3.5796  -11.8000    5.4782 C   0  0  0  0  0  0
    4.8453  -11.9150    6.2940 C   0  0  0  0  0  0
    5.8586  -12.4687    5.9289 O   0  0  0  0  0  0
  -12.0207   -3.4622    7.4625 H   0  0  0  0  0  0
  -12.1337   -3.5409    5.6983 H   0  0  0  0  0  0
  -12.3934   -2.0038    6.5319 H   0  0  0  0  0  0
   -9.9804   -2.0145    7.2885 H   0  0  0  0  0  0
   -9.7235   -3.5403    6.4612 H   0  0  0  0  0  0
  -10.2605   -2.4407    4.2644 H   0  0  0  0  0  0
  -10.5147   -0.9127    5.0915 H   0  0  0  0  0  0
   -8.1288   -0.9474    5.8895 H   0  0  0  0  0  0
   -7.8771   -2.4798    5.0727 H   0  0  0  0  0  0
   -8.3785   -1.3822    2.8621 H   0  0  0  0  0  0
   -8.6103    0.1548    3.6803 H   0  0  0  0  0  0
   -6.2381    0.0730    4.5097 H   0  0  0  0  0  0
   -6.0129   -1.4765    3.7192 H   0  0  0  0  0  0
   -6.4458   -0.3927    1.4838 H   0  0  0  0  0  0
   -6.6241    1.1636    2.2795 H   0  0  0  0  0  0
   -4.2730    0.9895    3.1521 H   0  0  0  0  0  0
   -4.1092   -0.5876    2.4035 H   0  0  0  0  0  0
   -4.4432    0.4689    0.1328 H   0  0  0  0  0  0
   -4.5234    2.0512    0.8934 H   0  0  0  0  0  0
   -2.2058    1.7299    1.8132 H   0  0  0  0  0  0
   -2.1619    0.1184    1.1262 H   0  0  0  0  0  0
   -2.3473    1.1201   -1.1902 H   0  0  0  0  0  0
   -2.3621    2.7252   -0.4774 H   0  0  0  0  0  0
   -0.0991    2.2845   -1.2502 H   0  0  0  0  0  0
   -0.0718    2.2933    0.5059 H   0  0  0  0  0  0
   -0.1963   -0.2348    0.4816 H   0  0  0  0  0  0
   -0.1258   -0.2093   -1.2694 H   0  0  0  0  0  0
    2.1331    0.9147   -1.1353 H   0  0  0  0  0  0
    2.0404    0.8670    0.6180 H   0  0  0  0  0  0
    2.0983   -1.5785   -1.2381 H   0  0  0  0  0  0
    3.4460   -0.9812   -0.2824 H   0  0  0  0  0  0
    2.1018   -1.4166    1.8242 H   0  0  0  0  0  0
    0.8116   -2.0786    0.8393 H   0  0  0  0  0  0
    2.4149   -3.8364   -0.0375 H   0  0  0  0  0  0
    3.6298   -3.2428    1.0855 H   0  0  0  0  0  0
    2.0507   -3.6987    3.0056 H   0  0  0  0  0  0
    0.8456   -4.2694    1.8671 H   0  0  0  0  0  0
    2.4401   -6.1159    1.1571 H   0  0  0  0  0  0
    3.5643   -5.5836    2.3988 H   0  0  0  0  0  0
    1.7742   -5.9647    4.1481 H   0  0  0  0  0  0
    0.6795   -6.5083    2.8899 H   0  0  0  0  0  0
    2.2831   -8.4007    2.3537 H   0  0  0  0  0  0
    3.3086   -7.8677    3.6767 H   0  0  0  0  0  0
    1.3866   -8.2267    5.2832 H   0  0  0  0  0  0
    0.3733   -8.7261    3.9411 H   0  0  0  0  0  0
    1.0960  -10.7227    5.0646 H   0  0  0  0  0  0
    1.9237  -10.6793    3.5162 H   0  0  0  0  0  0
    4.0062   -9.8526    4.6431 H   0  0  0  0  0  0
    3.1564   -9.7907    6.1806 H   0  0  0  0  0  0
    2.7682  -12.2829    6.0432 H   0  0  0  0  0  0
    3.7175  -12.3471    4.5405 H   0  0  0  0  0  0
    4.7955  -11.4204    7.2940 H   0  0  0  0  0  0
  1  2  1  0  0  0
  1 28  1  0  0  0
  1 29  1  0  0  0
  1 30  1  0  0  0
  2  3  1  0  0  0
  2 31  1  0  0  0
  2 32  1  0  0  0
  3  4  1  0  0  0
  3 33  1  0  0  0
  3 34  1  0  0  0
  4  5  1  0  0  0
  4 35  1  0  0  0
  4 36  1  0  0  0
  5  6  1  0  0  0
  5 37  1  0  0  0
  5 38  1  0  0  0
  6  7  1  0  0  0
  6 39  1  0  0  0
  6 40  1  0  0  0
  7  8  1  0  0  0
  7 41  1  0  0  0
  7 42  1  0  0  0
  8  9  1  0  0  0
  8 43  1  0  0  0
  8 44  1  0  0  0
  9 10  1  0  0  0
  9 45  1  0  0  0
  9 46  1  0  0  0
 10 11  1  0  0  0
 10 47  1  0  0  0
 10 48  1  0  0  0
 11 12  1  0  0  0
 11 49  1  0  0  0
 11 50  1  0  0  0
 12 13  1  0  0  0
 12 51  1  0  0  0
 12 52  1  0  0  0
 13 14  1  0  0  0
 13 53  1  0  0  0
 13 54  1  0  0  0
 14 15  1  0  0  0
 14 55  1  0  0  0
 14 56  1  0  0  0
 15 16  1  0  0  0
 15 57  1  0  0  0
 15 58  1  0  0  0
 16 17  1  0  0  0
 16 59  1  0  0  0
 16 60  1  0  0  0
 17 18  1  0  0  0
 17 61  1  0  0  0
 17 62  1  0  0  0
 18 19  1  0  0  0
 18 63  1  0  0  0
 18 64  1  0  0  0
 19 20  1  0  0  0
 19 65  1  0  0  0
 19 66  1  0  0  0
 20 21  1  0  0  0
 20 67  1  0  0  0
 20 68  1  0  0  0
 21 22  1  0  0  0
 21 69  1  0  0  0
 21 70  1  0  0  0
 22 23  1  0  0  0
 22 71  1  0  0  0
 22 72  1  0  0  0
 23 24  1  0  0  0
 23 73  1  0  0  0
 23 74  1  0  0  0
 24 25  1  0  0  0
 24 75  1  0  0  0
 24 76  1  0  0  0
 25 26  1  0  0  0
 25 77  1  0  0  0
 25 78  1  0  0  0
 26 27  2  0  0  0
 26 79  1  0  0  0
M  END
>  <i_m_Spin_multiplicity> (1)
1

>  <s_j_Task> (1)
Single Point

>  <s_j_QM_Method> (1)
DFT(b3lyp-d3)

>  <s_j_QM_Basis> (1)
cc-pvtz(-f)

>  <i_j_Number_of_canonical_orbitals> (1)
1081

>  <i_j_Geometry_convergence_category> (1)
4

>  <r_j_Gas_Phase_Energy> (1)
-1097.79299666901

>  <r_j_Final_Energy> (1)
-1097.79299666901

>  <r_j_HOMO> (1)
-0.302832916116307

>  <r_j_LUMO> (1)
-0.130480280841638

>  <r_j_Polarizability> (1)
324.572923142562

>  <r_j_QM_Dipole_(debye)> (1)
3.06971542607448

>  <r_j_QM_Dipole_X_(debye)> (1)
-2.6331628471661

>  <r_j_QM_Dipole_Y_(debye)> (1)
1.57435821422631

>  <r_j_QM_Dipole_Z_(debye)> (1)
0.104892471998202

>  <r_j_Lowest_Frequency_(cm-1)> (1)
15.8002202442774

>  <r_j_Highest_Frequency_(cm-1)> (1)
3050.4510169418

>  <r_j_2nd_Lowest_Frequency_(cm-1)> (1)
23.8708503094952

>  <i_j_Num_Negative_Frequencies> (1)
0

>  <r_j_Zero_Point_Energy_(kcal/mol)> (1)
464.069015536541

>  <r_j_Entropy_(cal/mol/K)_298.15K_1.00E+00atm> (1)
199.863418440313

>  <r_j_Enthalpy_(kcal/mol)_298.15K_1.00E+00atm> (1)
21.0649738957478

>  <r_j_Free_Energy_(kcal/mol)_298.15K_1.00E+00atm> (1)
-38.5243043122315

>  <r_j_Internal_Energy_(kcal/mol)_298.15K_1.00E+00atm> (1)
20.4724883069205

>  <r_j_Heat_Capacity_(cal/mol/K)_298.15K_1.00E+00atm> (1)
124.643521480931

>  <r_j_ln(Q)_298.15K_1.00E+00atm> (1)
65.0215043854212

>  <r_j_Total_Internal_Energy_(au)_298.15K_1.00E+00atm> (1)
-1097.02083062688

>  <r_j_Total_Enthalpy_(au)_298.15K_1.00E+00atm> (1)
-1097.01988644099

>  <r_j_Total_Free_Energy_(au)_298.15K_1.00E+00atm> (1)
-1097.11484800103

>  <r_lp_tautomer_probability> (1)
1

>  <r_epik_Ionization_Penalty> (1)
  0.0000

>  <r_epik_Ionization_Penalty_Charging> (1)
  0.0000

>  <r_epik_Ionization_Penalty_Neutral> (1)
  0.0000

>  <r_epik_State_Penalty> (1)
  0.0000

>  <r_epik_Charging_Adjusted_Penalty> (1)
0

>  <i_epik_Tot_Q> (1)
0

>  <i_epik_Tot_abs_Q> (1)
0

>  <s_lp_Force_Field> (1)
S-OPLS

>  <r_lp_Energy> (1)
14.040361

>  <b_lp_Chiralities_Consistent> (1)
1

$$$$
