3084097_Sitosterols
                    3D
 Schrodinger Suite 2021-3.
 82 85  0  0  1  0            999 V2000
   -0.8845    2.2981    2.2382 C   0  0  0  0  0  0
   -0.2218    2.7360    0.9269 C   0  0  0  0  0  0
   -0.4910    1.8064   -0.2795 C   0  0  0  0  0  0
   -0.1737    0.3283    0.0481 C   0  0  0  0  0  0
    1.2975    0.0370    0.3787 C   0  0  0  0  0  0
    1.6295   -1.4654    0.5316 C   0  0  0  0  0  0
    0.8702   -2.0856    1.7162 C   0  0  0  0  0  0
    3.1726   -1.6640    0.5707 C   0  0  0  0  0  0
    3.8322   -1.1413    1.8787 C   0  0  0  0  0  0
    4.2264   -2.3855    2.7152 C   0  0  0  0  0  0
    3.8266   -3.6381    1.8909 C   0  0  0  0  0  0
    3.7181   -3.1275    0.4220 C   0  0  0  0  0  0
    5.1428   -3.0518   -0.1873 C   0  0  0  0  0  0
    5.9647   -4.3392   -0.0242 C   0  0  0  0  0  0
    6.1460   -4.6991    1.4649 C   0  0  0  0  0  0
    4.7573   -4.8479    2.1509 C   0  0  0  0  0  0
    4.0883   -6.1967    1.8150 C   0  0  0  0  0  0
    4.9976   -7.3907    2.1280 C   0  0  0  0  0  0
    6.3438   -7.2570    1.4037 C   0  0  0  0  0  0
    7.0781   -5.9277    1.7642 C   0  0  0  0  0  0
    8.3796   -5.8641    0.9221 C   0  0  0  0  0  0
    9.2920   -7.0862    1.1128 C   0  0  0  0  0  0
    8.5449   -8.3787    0.7899 C   0  0  0  0  0  0
    7.2450   -8.4881    1.5964 C   0  0  0  0  0  0
    9.4361   -9.4600    1.0613 O   0  0  0  0  0  0
    7.4680   -5.8716    3.2614 C   0  0  0  0  0  0
    2.8347   -3.9926   -0.4923 C   0  0  0  0  0  0
    0.2238    2.3233   -1.5613 C   0  0  0  0  0  0
   -0.3119    3.6975   -1.9996 C   0  0  0  0  0  0
    0.1104    1.3396   -2.7378 C   0  0  0  0  0  0
   -0.7680    3.0672    3.0087 H   0  0  0  0  0  0
   -0.4501    1.3735    2.6311 H   0  0  0  0  0  0
   -1.9586    2.1267    2.0995 H   0  0  0  0  0  0
   -0.5758    3.7435    0.6855 H   0  0  0  0  0  0
    0.8620    2.8281    1.0795 H   0  0  0  0  0  0
   -1.5733    1.8473   -0.4856 H   0  0  0  0  0  0
   -0.8095    0.0217    0.8846 H   0  0  0  0  0  0
   -0.4839   -0.3028   -0.7929 H   0  0  0  0  0  0
    1.9319    0.4481   -0.4167 H   0  0  0  0  0  0
    1.5807    0.5719    1.2944 H   0  0  0  0  0  0
    1.2645   -1.9513   -0.3834 H   0  0  0  0  0  0
    1.2072   -1.6671    2.6713 H   0  0  0  0  0  0
    1.0010   -3.1685    1.7646 H   0  0  0  0  0  0
   -0.2043   -1.8980    1.6370 H   0  0  0  0  0  0
    3.5518   -1.0906   -0.2865 H   0  0  0  0  0  0
    4.7173   -0.5420    1.6444 H   0  0  0  0  0  0
    3.1624   -0.4767    2.4314 H   0  0  0  0  0  0
    5.3029   -2.3860    2.9160 H   0  0  0  0  0  0
    3.7342   -2.3984    3.6933 H   0  0  0  0  0  0
    2.8251   -3.9429    2.2132 H   0  0  0  0  0  0
    5.0622   -2.7899   -1.2504 H   0  0  0  0  0  0
    5.7012   -2.2329    0.2848 H   0  0  0  0  0  0
    5.4930   -5.1644   -0.5698 H   0  0  0  0  0  0
    6.9377   -4.1807   -0.4978 H   0  0  0  0  0  0
    6.6451   -3.8302    1.9196 H   0  0  0  0  0  0
    4.9238   -4.8577    3.2366 H   0  0  0  0  0  0
    3.1460   -6.2779    2.3714 H   0  0  0  0  0  0
    3.8173   -6.2355    0.7549 H   0  0  0  0  0  0
    5.1608   -7.4705    3.2108 H   0  0  0  0  0  0
    4.5082   -8.3249    1.8238 H   0  0  0  0  0  0
    6.1177   -7.1999    0.3268 H   0  0  0  0  0  0
    8.1205   -5.8090   -0.1412 H   0  0  0  0  0  0
    8.9269   -4.9417    1.1552 H   0  0  0  0  0  0
   10.1720   -7.0101    0.4649 H   0  0  0  0  0  0
    9.6678   -7.1535    2.1395 H   0  0  0  0  0  0
    8.2824   -8.3635   -0.2842 H   0  0  0  0  0  0
    7.5023   -8.6268    2.6533 H   0  0  0  0  0  0
    6.6974   -9.3909    1.2888 H   0  0  0  0  0  0
    8.9661  -10.2826    0.8704 H   0  0  0  0  0  0
    8.0978   -6.7106    3.5625 H   0  0  0  0  0  0
    6.5997   -5.8721    3.9224 H   0  0  0  0  0  0
    8.0314   -4.9535    3.4620 H   0  0  0  0  0  0
    3.3149   -4.9399   -0.7465 H   0  0  0  0  0  0
    2.6395   -3.4722   -1.4373 H   0  0  0  0  0  0
    1.8704   -4.2301   -0.0346 H   0  0  0  0  0  0
    1.2918    2.4433   -1.3272 H   0  0  0  0  0  0
   -1.3878    3.6441   -2.2088 H   0  0  0  0  0  0
    0.1863    4.0331   -2.9153 H   0  0  0  0  0  0
   -0.1570    4.4708   -1.2431 H   0  0  0  0  0  0
   -0.9400    1.1030   -2.9488 H   0  0  0  0  0  0
    0.6329    0.3982   -2.5474 H   0  0  0  0  0  0
    0.5402    1.7740   -3.6465 H   0  0  0  0  0  0
  1  2  1  0  0  0
  1 31  1  0  0  0
  1 32  1  0  0  0
  1 33  1  0  0  0
  2  3  1  0  0  0
  2 34  1  0  0  0
  2 35  1  0  0  0
  3  4  1  0  0  0
  3 28  1  0  0  0
  3 36  1  0  0  0
  4  5  1  0  0  0
  4 37  1  0  0  0
  4 38  1  0  0  0
  5  6  1  0  0  0
  5 39  1  0  0  0
  5 40  1  0  0  0
  6  7  1  0  0  0
  6  8  1  0  0  0
  6 41  1  0  0  0
  7 42  1  0  0  0
  7 43  1  0  0  0
  7 44  1  0  0  0
  8 12  1  0  0  0
  8  9  1  0  0  0
  8 45  1  0  0  0
  9 10  1  0  0  0
  9 46  1  0  0  0
  9 47  1  0  0  0
 10 11  1  0  0  0
 10 48  1  0  0  0
 10 49  1  0  0  0
 11 16  1  0  0  0
 11 12  1  0  0  0
 11 50  1  0  0  0
 12 13  1  0  0  0
 12 27  1  0  0  0
 13 14  1  0  0  0
 13 51  1  0  0  0
 13 52  1  0  0  0
 14 15  1  0  0  0
 14 53  1  0  0  0
 14 54  1  0  0  0
 15 20  1  0  0  0
 15 16  1  0  0  0
 15 55  1  0  0  0
 16 17  1  0  0  0
 16 56  1  0  0  0
 17 18  1  0  0  0
 17 57  1  0  0  0
 17 58  1  0  0  0
 18 19  1  0  0  0
 18 59  1  0  0  0
 18 60  1  0  0  0
 19 24  1  0  0  0
 19 20  1  0  0  0
 19 61  1  0  0  0
 20 21  1  0  0  0
 20 26  1  0  0  0
 21 22  1  0  0  0
 21 62  1  0  0  0
 21 63  1  0  0  0
 22 23  1  0  0  0
 22 64  1  0  0  0
 22 65  1  0  0  0
 23 24  1  0  0  0
 23 25  1  0  0  0
 23 66  1  0  0  0
 24 67  1  0  0  0
 24 68  1  0  0  0
 25 69  1  0  0  0
 26 70  1  0  0  0
 26 71  1  0  0  0
 26 72  1  0  0  0
 27 73  1  0  0  0
 27 74  1  0  0  0
 27 75  1  0  0  0
 28 29  1  0  0  0
 28 30  1  0  0  0
 28 76  1  0  0  0
 29 77  1  0  0  0
 29 78  1  0  0  0
 29 79  1  0  0  0
 30 80  1  0  0  0
 30 81  1  0  0  0
 30 82  1  0  0  0
M  END
>  <i_m_Spin_multiplicity> (1)
1

>  <s_j_Task> (1)
Single Point

>  <s_j_QM_Method> (1)
DFT(b3lyp-d3)

>  <s_j_QM_Basis> (1)
cc-pvtz(-f)

>  <i_j_Number_of_canonical_orbitals> (1)
1139

>  <i_j_Geometry_convergence_category> (1)
3

>  <r_j_Gas_Phase_Energy> (1)
-1212.15156904828

>  <r_j_Final_Energy> (1)
-1212.15156904828

>  <r_j_HOMO> (1)
-0.28873856790757

>  <r_j_LUMO> (1)
-0.0238123107568608

>  <r_j_Polarizability> (1)
333.466100954809

>  <r_j_QM_Dipole_(debye)> (1)
1.54891055755895

>  <r_j_QM_Dipole_X_(debye)> (1)
-1.46963323489398

>  <r_j_QM_Dipole_Y_(debye)> (1)
0.156767259656714

>  <r_j_QM_Dipole_Z_(debye)> (1)
-0.46338547291901

>  <r_j_Lowest_Frequency_(cm-1)> (1)
36.3282770625705

>  <r_j_Highest_Frequency_(cm-1)> (1)
3754.09321783167

>  <r_j_2nd_Lowest_Frequency_(cm-1)> (1)
41.3480617682229

>  <i_j_Num_Negative_Frequencies> (1)
0

>  <r_j_Zero_Point_Energy_(kcal/mol)> (1)
480.575562820405

>  <r_j_Entropy_(cal/mol/K)_298.15K_1.00E+00atm> (1)
178.382423240653

>  <r_j_Enthalpy_(kcal/mol)_298.15K_1.00E+00atm> (1)
19.2448971437124

>  <r_j_Free_Energy_(kcal/mol)_298.15K_1.00E+00atm> (1)
-33.9398223454884

>  <r_j_Internal_Energy_(kcal/mol)_298.15K_1.00E+00atm> (1)
18.6524115548851

>  <r_j_Heat_Capacity_(cal/mol/K)_298.15K_1.00E+00atm> (1)
127.381766697015

>  <r_j_ln(Q)_298.15K_1.00E+00atm> (1)
57.2837938770234

>  <r_j_Total_Internal_Energy_(au)_298.15K_1.00E+00atm> (1)
-1211.35599862545

>  <r_j_Total_Enthalpy_(au)_298.15K_1.00E+00atm> (1)
-1211.35505443956

>  <r_j_Total_Free_Energy_(au)_298.15K_1.00E+00atm> (1)
-1211.43980968555

>  <r_lp_tautomer_probability> (1)
1

>  <r_epik_Ionization_Penalty> (1)
  0.0000

>  <r_epik_Ionization_Penalty_Charging> (1)
  0.0000

>  <r_epik_Ionization_Penalty_Neutral> (1)
  0.0000

>  <r_epik_State_Penalty> (1)
  0.0000

>  <r_epik_Charging_Adjusted_Penalty> (1)
0

>  <i_epik_Tot_Q> (1)
0

>  <i_epik_Tot_abs_Q> (1)
0

>  <s_lp_Force_Field> (1)
S-OPLS

>  <r_lp_Energy> (1)
58.65735

>  <b_lp_Chiralities_Consistent> (1)
1

$$$$
