31240_3-(Chloromethyl)-heptane
                    3D
 Schrodinger Suite 2021-3.
 26 25  0  0  1  0            999 V2000
   -2.6527    2.9242   -0.1851 C   0  0  0  0  0  0
   -2.0947    1.5227    0.0787 C   0  0  0  0  0  0
   -0.5692    1.4521   -0.0581 C   0  0  0  0  0  0
   -0.0099    0.0450    0.1904 C   0  0  0  0  0  0
    1.5277   -0.0729    0.0837 C   0  0  0  0  0  0
    1.9880   -1.5342   -0.0833 C   0  0  0  0  0  0
    1.6781   -2.1337   -1.4588 C   0  0  0  0  0  0
    2.1581    0.5688    1.3227 C   0  0  0  0  0  0
    3.9609    0.8055    1.1618 Cl  0  0  0  0  0  0
   -3.7417    2.9506   -0.0761 H   0  0  0  0  0  0
   -2.4100    3.2605   -1.1996 H   0  0  0  0  0  0
   -2.2295    3.6547    0.5140 H   0  0  0  0  0  0
   -2.3812    1.1956    1.0876 H   0  0  0  0  0  0
   -2.5540    0.8053   -0.6149 H   0  0  0  0  0  0
   -0.2775    1.7814   -1.0653 H   0  0  0  0  0  0
   -0.1201    2.1748    0.6362 H   0  0  0  0  0  0
   -0.3287   -0.3125    1.1809 H   0  0  0  0  0  0
   -0.4683   -0.6397   -0.5325 H   0  0  0  0  0  0
    1.8599    0.4990   -0.7939 H   0  0  0  0  0  0
    3.0689   -1.5847    0.0861 H   0  0  0  0  0  0
    1.5218   -2.1425    0.7049 H   0  0  0  0  0  0
    2.0447   -3.1628   -1.5271 H   0  0  0  0  0  0
    2.1620   -1.5549   -2.2535 H   0  0  0  0  0  0
    0.6042   -2.1552   -1.6711 H   0  0  0  0  0  0
    1.7549    1.5618    1.5205 H   0  0  0  0  0  0
    2.0103   -0.0558    2.2077 H   0  0  0  0  0  0
  1  2  1  0  0  0
  1 10  1  0  0  0
  1 11  1  0  0  0
  1 12  1  0  0  0
  2  3  1  0  0  0
  2 13  1  0  0  0
  2 14  1  0  0  0
  3  4  1  0  0  0
  3 15  1  0  0  0
  3 16  1  0  0  0
  4  5  1  0  0  0
  4 17  1  0  0  0
  4 18  1  0  0  0
  5  6  1  0  0  0
  5  8  1  0  0  0
  5 19  1  0  0  0
  6  7  1  0  0  0
  6 20  1  0  0  0
  6 21  1  0  0  0
  7 22  1  0  0  0
  7 23  1  0  0  0
  7 24  1  0  0  0
  8  9  1  0  0  0
  8 25  1  0  0  0
  8 26  1  0  0  0
M  END
>  <i_m_Spin_multiplicity> (1)
1

>  <s_j_Task> (1)
Single Point

>  <s_j_QM_Method> (1)
DFT(b3lyp-d3)

>  <s_j_QM_Basis> (1)
cc-pvtz(-f)

>  <i_j_Number_of_canonical_orbitals> (1)
363

>  <i_j_Geometry_convergence_category> (1)
1

>  <r_j_Gas_Phase_Energy> (1)
-775.47269952715

>  <r_j_Final_Energy> (1)
-775.47269952715

>  <r_j_HOMO> (1)
-0.292170173601485

>  <r_j_LUMO> (1)
0.00982773052517357

>  <r_j_Polarizability> (1)
110.763050301221

>  <r_j_QM_Dipole_(debye)> (1)
2.30952039514395

>  <r_j_QM_Dipole_X_(debye)> (1)
-2.26644357226394

>  <r_j_QM_Dipole_Y_(debye)> (1)
-0.414714515574906

>  <r_j_QM_Dipole_Z_(debye)> (1)
-0.158524004178544

>  <r_j_Lowest_Frequency_(cm-1)> (1)
76.217068641754

>  <r_j_Highest_Frequency_(cm-1)> (1)
3093.39754850102

>  <r_j_2nd_Lowest_Frequency_(cm-1)> (1)
88.5104137795802

>  <i_j_Num_Negative_Frequencies> (1)
0

>  <r_j_Zero_Point_Energy_(kcal/mol)> (1)
148.662606194319

>  <r_j_Entropy_(cal/mol/K)_298.15K_1.00E+00atm> (1)
103.436655931306

>  <r_j_Enthalpy_(kcal/mol)_298.15K_1.00E+00atm> (1)
7.64528401083502

>  <r_j_Free_Energy_(kcal/mol)_298.15K_1.00E+00atm> (1)
-23.1943549550838

>  <r_j_Internal_Energy_(kcal/mol)_298.15K_1.00E+00atm> (1)
7.05279842200775

>  <r_j_Heat_Capacity_(cal/mol/K)_298.15K_1.00E+00atm> (1)
41.5286337318361

>  <r_j_ln(Q)_298.15K_1.00E+00atm> (1)
39.1475428136457

>  <r_j_Total_Internal_Energy_(au)_298.15K_1.00E+00atm> (1)
-775.224551232884

>  <r_j_Total_Enthalpy_(au)_298.15K_1.00E+00atm> (1)
-775.223607046992

>  <r_j_Total_Free_Energy_(au)_298.15K_1.00E+00atm> (1)
-775.272753140303

>  <r_lp_tautomer_probability> (1)
1

>  <r_epik_Ionization_Penalty> (1)
  0.0000

>  <r_epik_Ionization_Penalty_Charging> (1)
  0.0000

>  <r_epik_Ionization_Penalty_Neutral> (1)
  0.0000

>  <r_epik_State_Penalty> (1)
  0.0000

>  <r_epik_Charging_Adjusted_Penalty> (1)
0

>  <i_epik_Tot_Q> (1)
0

>  <i_epik_Tot_abs_Q> (1)
0

>  <s_lp_Force_Field> (1)
S-OPLS

>  <r_lp_Energy> (1)
4.86597

>  <b_lp_Chiralities_Consistent> (1)
1

$$$$
