31242_4-Ethylphenol
                    3D
 Schrodinger Suite 2021-3.
 19 19  0  0  1  0            999 V2000
   -0.5596    1.4453   -0.0092 C   0  0  0  0  0  0
   -0.0081    0.0087    0.0054 C   0  0  0  0  0  0
    1.5049   -0.0302    0.0116 C   0  0  0  0  0  0
    2.2342   -0.0169   -1.1859 C   0  0  0  0  0  0
    3.6252   -0.0036   -1.1943 C   0  0  0  0  0  0
    4.3248   -0.0027    0.0159 C   0  0  0  0  0  0
    3.6198   -0.0155    1.2225 C   0  0  0  0  0  0
    2.2249   -0.0285    1.2107 C   0  0  0  0  0  0
    5.6925    0.0062   -0.0474 O   0  0  0  0  0  0
   -1.6549    1.4511   -0.0160 H   0  0  0  0  0  0
   -0.2093    1.9860   -0.8946 H   0  0  0  0  0  0
   -0.2197    2.0000    0.8716 H   0  0  0  0  0  0
   -0.3946   -0.5189    0.8857 H   0  0  0  0  0  0
   -0.3867   -0.5324   -0.8703 H   0  0  0  0  0  0
    1.7002   -0.0191   -2.1333 H   0  0  0  0  0  0
    4.1866    0.0015   -2.1226 H   0  0  0  0  0  0
    4.1596   -0.0200    2.1673 H   0  0  0  0  0  0
    1.6886   -0.0399    2.1567 H   0  0  0  0  0  0
    6.0507    0.0035    0.8496 H   0  0  0  0  0  0
  1  2  1  0  0  0
  1 10  1  0  0  0
  1 11  1  0  0  0
  1 12  1  0  0  0
  2  3  1  0  0  0
  2 13  1  0  0  0
  2 14  1  0  0  0
  3  8  1  0  0  0
  3  4  2  0  0  0
  4  5  1  0  0  0
  4 15  1  0  0  0
  5  6  2  0  0  0
  5 16  1  0  0  0
  6  7  1  0  0  0
  6  9  1  0  0  0
  7  8  2  0  0  0
  7 17  1  0  0  0
  8 18  1  0  0  0
  9 19  1  0  0  0
M  END
>  <i_m_Spin_multiplicity> (1)
1

>  <s_j_Task> (1)
Single Point

>  <s_j_QM_Method> (1)
DFT(b3lyp-d3)

>  <s_j_QM_Basis> (1)
cc-pvtz(-f)

>  <i_j_Number_of_canonical_orbitals> (1)
291

>  <i_j_Geometry_convergence_category> (1)
0

>  <r_j_Gas_Phase_Energy> (1)
-386.242654471294

>  <r_j_Final_Energy> (1)
-386.242654471294

>  <r_j_HOMO> (1)
-0.220916723741338

>  <r_j_LUMO> (1)
-0.0139331336657051

>  <r_j_Polarizability> (1)
94.9979064914327

>  <r_j_QM_Dipole_(debye)> (1)
1.28575624562082

>  <r_j_QM_Dipole_X_(debye)> (1)
-0.21112023893173

>  <r_j_QM_Dipole_Y_(debye)> (1)
0.020411532810215

>  <r_j_QM_Dipole_Z_(debye)> (1)
1.2681406614389

>  <r_j_Lowest_Frequency_(cm-1)> (1)
87.2400101774905

>  <r_j_Highest_Frequency_(cm-1)> (1)
3772.9018229418

>  <r_j_2nd_Lowest_Frequency_(cm-1)> (1)
110.177419870382

>  <i_j_Num_Negative_Frequencies> (1)
0

>  <r_j_Zero_Point_Energy_(kcal/mol)> (1)
100.617395456984

>  <r_j_Entropy_(cal/mol/K)_298.15K_1.00E+00atm> (1)
87.8103273157324

>  <r_j_Enthalpy_(kcal/mol)_298.15K_1.00E+00atm> (1)
5.7046768014974

>  <r_j_Free_Energy_(kcal/mol)_298.15K_1.00E+00atm> (1)
-20.4759722876882

>  <r_j_Internal_Energy_(kcal/mol)_298.15K_1.00E+00atm> (1)
5.11219121267013

>  <r_j_Heat_Capacity_(cal/mol/K)_298.15K_1.00E+00atm> (1)
32.0668945844784

>  <r_j_ln(Q)_298.15K_1.00E+00atm> (1)
34.5594435945977

>  <r_j_Total_Internal_Energy_(au)_298.15K_1.00E+00atm> (1)
-386.074163648885

>  <r_j_Total_Enthalpy_(au)_298.15K_1.00E+00atm> (1)
-386.073219462993

>  <r_j_Total_Free_Energy_(au)_298.15K_1.00E+00atm> (1)
-386.11494098329

>  <r_lp_tautomer_probability> (1)
1

>  <r_epik_Ionization_Penalty> (1)
  0.0004

>  <r_epik_Ionization_Penalty_Charging> (1)
  0.0000

>  <r_epik_Ionization_Penalty_Neutral> (1)
  0.0004

>  <r_epik_State_Penalty> (1)
  0.0003

>  <r_epik_Charging_Adjusted_Penalty> (1)
0.000275477

>  <i_epik_Tot_Q> (1)
0

>  <i_epik_Tot_abs_Q> (1)
0

>  <s_lp_Force_Field> (1)
S-OPLS

>  <r_lp_Energy> (1)
6.66831

>  <b_lp_Chiralities_Consistent> (1)
1

$$$$
