31259_2,2,4,6,6-Pentamethylheptene-3
                    3D
 Schrodinger Suite 2021-3.
 36 35  0  0  1  0            999 V2000
   -0.5661   -1.5723    0.1840 C   0  0  0  0  0  0
   -0.0503   -0.1594    0.0347 C   0  0  0  0  0  0
   -0.8041    0.9524    0.0067 C   0  0  0  0  0  0
   -2.3228    1.1336    0.0253 C   0  0  0  0  0  0
   -2.6218    2.6465   -0.0525 C   0  0  0  0  0  0
   -2.9421    0.5920    1.3335 C   0  0  0  0  0  0
   -2.9818    0.4566   -1.1981 C   0  0  0  0  0  0
    1.4654   -0.0369   -0.0431 C   0  0  0  0  0  0
    2.0963    0.0263   -1.4715 C   0  0  0  0  0  0
    1.6971   -1.1953   -2.3180 C   0  0  0  0  0  0
    3.6275    0.0434   -1.3029 C   0  0  0  0  0  0
    1.6573    1.3068   -2.2030 C   0  0  0  0  0  0
   -0.1400   -2.2339   -0.5768 H   0  0  0  0  0  0
   -1.6503   -1.6524    0.1275 H   0  0  0  0  0  0
   -0.2524   -1.9779    1.1554 H   0  0  0  0  0  0
   -0.2523    1.8910   -0.0484 H   0  0  0  0  0  0
   -3.7014    2.8315   -0.0488 H   0  0  0  0  0  0
   -2.2081    3.0824   -0.9689 H   0  0  0  0  0  0
   -2.1854    3.1786    0.8002 H   0  0  0  0  0  0
   -2.4930    1.0805    2.2044 H   0  0  0  0  0  0
   -2.7950   -0.4845    1.4454 H   0  0  0  0  0  0
   -4.0211    0.7862    1.3545 H   0  0  0  0  0  0
   -4.0623    0.6430   -1.2038 H   0  0  0  0  0  0
   -2.8305   -0.6253   -1.2039 H   0  0  0  0  0  0
   -2.5642    0.8538   -2.1292 H   0  0  0  0  0  0
    1.7865    0.8645    0.4938 H   0  0  0  0  0  0
    1.9200   -0.8865    0.4848 H   0  0  0  0  0  0
    2.2022   -1.1700   -3.2903 H   0  0  0  0  0  0
    0.6191   -1.2135   -2.5059 H   0  0  0  0  0  0
    1.9759   -2.1328   -1.8229 H   0  0  0  0  0  0
    3.9822   -0.8676   -0.8073 H   0  0  0  0  0  0
    3.9494    0.9005   -0.7003 H   0  0  0  0  0  0
    4.1277    0.1121   -2.2756 H   0  0  0  0  0  0
    2.1301    1.3677   -3.1897 H   0  0  0  0  0  0
    1.9423    2.2026   -1.6390 H   0  0  0  0  0  0
    0.5733    1.3302   -2.3438 H   0  0  0  0  0  0
  1  2  1  0  0  0
  1 13  1  0  0  0
  1 14  1  0  0  0
  1 15  1  0  0  0
  2  3  2  0  0  0
  2  8  1  0  0  0
  3  4  1  0  0  0
  3 16  1  0  0  0
  4  5  1  0  0  0
  4  6  1  0  0  0
  4  7  1  0  0  0
  5 17  1  0  0  0
  5 18  1  0  0  0
  5 19  1  0  0  0
  6 20  1  0  0  0
  6 21  1  0  0  0
  6 22  1  0  0  0
  7 23  1  0  0  0
  7 24  1  0  0  0
  7 25  1  0  0  0
  8  9  1  0  0  0
  8 26  1  0  0  0
  8 27  1  0  0  0
  9 10  1  0  0  0
  9 11  1  0  0  0
  9 12  1  0  0  0
 10 28  1  0  0  0
 10 29  1  0  0  0
 10 30  1  0  0  0
 11 31  1  0  0  0
 11 32  1  0  0  0
 11 33  1  0  0  0
 12 34  1  0  0  0
 12 35  1  0  0  0
 12 36  1  0  0  0
M  END
>  <i_m_Spin_multiplicity> (1)
1

>  <s_j_Task> (1)
Single Point

>  <s_j_QM_Method> (1)
DFT(b3lyp-d3)

>  <s_j_QM_Basis> (1)
cc-pvtz(-f)

>  <i_j_Number_of_canonical_orbitals> (1)
489

>  <i_j_Geometry_convergence_category> (1)
3

>  <r_j_Gas_Phase_Energy> (1)
-471.925520029961

>  <r_j_Final_Energy> (1)
-471.925520029961

>  <r_j_HOMO> (1)
-0.230552992828476

>  <r_j_LUMO> (1)
0.00949284022022753

>  <r_j_Polarizability> (1)
146.63283551605

>  <r_j_QM_Dipole_(debye)> (1)
0.279223702219365

>  <r_j_QM_Dipole_X_(debye)> (1)
0.0341164279740746

>  <r_j_QM_Dipole_Y_(debye)> (1)
-0.276418558203881

>  <r_j_QM_Dipole_Z_(debye)> (1)
0.0198677100810865

>  <r_j_Lowest_Frequency_(cm-1)> (1)
68.7466890565878

>  <r_j_Highest_Frequency_(cm-1)> (1)
3111.34777690678

>  <r_j_2nd_Lowest_Frequency_(cm-1)> (1)
79.9607759821293

>  <i_j_Num_Negative_Frequencies> (1)
0

>  <r_j_Zero_Point_Energy_(kcal/mol)> (1)
209.52765116623

>  <r_j_Entropy_(cal/mol/K)_298.15K_1.00E+00atm> (1)
113.709467647625

>  <r_j_Enthalpy_(kcal/mol)_298.15K_1.00E+00atm> (1)
9.68741915376426

>  <r_j_Free_Energy_(kcal/mol)_298.15K_1.00E+00atm> (1)
-24.215058625375

>  <r_j_Internal_Energy_(kcal/mol)_298.15K_1.00E+00atm> (1)
9.09493356493699

>  <r_j_Heat_Capacity_(cal/mol/K)_298.15K_1.00E+00atm> (1)
58.9141079827315

>  <r_j_ln(Q)_298.15K_1.00E+00atm> (1)
40.8702913319877

>  <r_j_Total_Internal_Energy_(au)_298.15K_1.00E+00atm> (1)
-471.577122762376

>  <r_j_Total_Enthalpy_(au)_298.15K_1.00E+00atm> (1)
-471.576178576484

>  <r_j_Total_Free_Energy_(au)_298.15K_1.00E+00atm> (1)
-471.630205614162

>  <r_lp_tautomer_probability> (1)
1

>  <r_epik_Ionization_Penalty> (1)
  0.0000

>  <r_epik_Ionization_Penalty_Charging> (1)
  0.0000

>  <r_epik_Ionization_Penalty_Neutral> (1)
  0.0000

>  <r_epik_State_Penalty> (1)
  0.0000

>  <r_epik_Charging_Adjusted_Penalty> (1)
0

>  <i_epik_Tot_Q> (1)
0

>  <i_epik_Tot_abs_Q> (1)
0

>  <s_lp_Force_Field> (1)
S-OPLS

>  <r_lp_Energy> (1)
8.79551

>  <b_lp_Chiralities_Consistent> (1)
1

$$$$
