31260_Isoamyl alcohol
                    3D
 Schrodinger Suite 2021-3.
 18 17  0  0  1  0            999 V2000
   -0.6239   -0.7051   -1.2810 C   0  0  0  0  0  0
   -0.0142   -0.0134   -0.0516 C   0  0  0  0  0  0
   -0.4926    1.4428    0.0349 C   0  0  0  0  0  0
    1.5238   -0.0679   -0.0491 C   0  0  0  0  0  0
    2.1129   -1.4720    0.0100 C   0  0  0  0  0  0
    3.5263   -1.3370    0.1361 O   0  0  0  0  0  0
   -0.2539   -0.2447   -2.2054 H   0  0  0  0  0  0
   -1.7155   -0.6154   -1.2789 H   0  0  0  0  0  0
   -0.3819   -1.7716   -1.3196 H   0  0  0  0  0  0
   -0.3716   -0.5400    0.8465 H   0  0  0  0  0  0
   -0.1618    2.0117   -0.8427 H   0  0  0  0  0  0
   -0.0946    1.9424    0.9246 H   0  0  0  0  0  0
   -1.5857    1.5002    0.0756 H   0  0  0  0  0  0
    1.9145    0.4388   -0.9416 H   0  0  0  0  0  0
    1.9089    0.4853    0.8163 H   0  0  0  0  0  0
    1.6829   -2.0162    0.8687 H   0  0  0  0  0  0
    1.8506   -2.0383   -0.8973 H   0  0  0  0  0  0
    3.9108   -2.2222    0.1551 H   0  0  0  0  0  0
  1  2  1  0  0  0
  1  7  1  0  0  0
  1  8  1  0  0  0
  1  9  1  0  0  0
  2  3  1  0  0  0
  2  4  1  0  0  0
  2 10  1  0  0  0
  3 11  1  0  0  0
  3 12  1  0  0  0
  3 13  1  0  0  0
  4  5  1  0  0  0
  4 14  1  0  0  0
  4 15  1  0  0  0
  5  6  1  0  0  0
  5 16  1  0  0  0
  5 17  1  0  0  0
  6 18  1  0  0  0
M  END
>  <i_m_Spin_multiplicity> (1)
1

>  <s_j_Task> (1)
Single Point

>  <s_j_QM_Method> (1)
DFT(b3lyp-d3)

>  <s_j_QM_Basis> (1)
cc-pvtz(-f)

>  <i_j_Number_of_canonical_orbitals> (1)
245

>  <i_j_Geometry_convergence_category> (1)
0

>  <r_j_Gas_Phase_Energy> (1)
-273.094005460218

>  <r_j_Final_Energy> (1)
-273.094005460218

>  <r_j_HOMO> (1)
-0.280163738830455

>  <r_j_LUMO> (1)
0.0203177492575875

>  <r_j_Polarizability> (1)
66.8277056529714

>  <r_j_QM_Dipole_(debye)> (1)
1.4968026998706

>  <r_j_QM_Dipole_X_(debye)> (1)
-0.732759851384645

>  <r_j_QM_Dipole_Y_(debye)> (1)
-1.30504468540468

>  <r_j_QM_Dipole_Z_(debye)> (1)
-0.0184307253157556

>  <r_j_Lowest_Frequency_(cm-1)> (1)
119.368404517225

>  <r_j_Highest_Frequency_(cm-1)> (1)
3772.13289974027

>  <r_j_2nd_Lowest_Frequency_(cm-1)> (1)
146.194237783356

>  <i_j_Num_Negative_Frequencies> (1)
0

>  <r_j_Zero_Point_Energy_(kcal/mol)> (1)
103.548471799745

>  <r_j_Entropy_(cal/mol/K)_298.15K_1.00E+00atm> (1)
83.3989582059559

>  <r_j_Enthalpy_(kcal/mol)_298.15K_1.00E+00atm> (1)
5.36186636528725

>  <r_j_Free_Energy_(kcal/mol)_298.15K_1.00E+00atm> (1)
-19.5035330238185

>  <r_j_Internal_Energy_(kcal/mol)_298.15K_1.00E+00atm> (1)
4.76938077645998

>  <r_j_Heat_Capacity_(cal/mol/K)_298.15K_1.00E+00atm> (1)
27.8712345691496

>  <r_j_ln(Q)_298.15K_1.00E+00atm> (1)
32.9181559713924

>  <r_j_Total_Internal_Energy_(au)_298.15K_1.00E+00atm> (1)
-272.921389973512

>  <r_j_Total_Enthalpy_(au)_298.15K_1.00E+00atm> (1)
-272.92044578762

>  <r_j_Total_Free_Energy_(au)_298.15K_1.00E+00atm> (1)
-272.960071324091

>  <r_lp_tautomer_probability> (1)
1

>  <r_epik_Ionization_Penalty> (1)
  0.0000

>  <r_epik_Ionization_Penalty_Charging> (1)
  0.0000

>  <r_epik_Ionization_Penalty_Neutral> (1)
  0.0000

>  <r_epik_State_Penalty> (1)
  0.0000

>  <r_epik_Charging_Adjusted_Penalty> (1)
0

>  <i_epik_Tot_Q> (1)
0

>  <i_epik_Tot_abs_Q> (1)
0

>  <s_lp_Force_Field> (1)
S-OPLS

>  <r_lp_Energy> (1)
2.930585

>  <b_lp_Chiralities_Consistent> (1)
1

$$$$
