31275_1,4-dioxane
                    3D
 Schrodinger Suite 2021-3.
 14 14  0  0  1  0            999 V2000
    4.4777   -2.4102   -2.3403 C   0  0  0  0  0  0
    3.9225   -3.7127   -1.7717 C   0  0  0  0  0  0
    4.8492   -4.2930   -0.8579 O   0  0  0  0  0  0
    6.1043   -4.5211   -1.4930 C   0  0  0  0  0  0
    6.6596   -3.2185   -2.0615 C   0  0  0  0  0  0
    5.7328   -2.6383   -2.9753 O   0  0  0  0  0  0
    4.5899   -1.6746   -1.5262 H   0  0  0  0  0  0
    3.8081   -1.9949   -3.1000 H   0  0  0  0  0  0
    2.9961   -3.5367   -1.2159 H   0  0  0  0  0  0
    3.7127   -4.4121   -2.5983 H   0  0  0  0  0  0
    6.7739   -4.9365   -0.7333 H   0  0  0  0  0  0
    5.9921   -5.2566   -2.3072 H   0  0  0  0  0  0
    6.8693   -2.5191   -1.2349 H   0  0  0  0  0  0
    7.5859   -3.3945   -2.6172 H   0  0  0  0  0  0
  1  6  1  0  0  0
  1  2  1  0  0  0
  1  7  1  0  0  0
  1  8  1  0  0  0
  2  3  1  0  0  0
  2  9  1  0  0  0
  2 10  1  0  0  0
  3  4  1  0  0  0
  4  5  1  0  0  0
  4 11  1  0  0  0
  4 12  1  0  0  0
  5  6  1  0  0  0
  5 13  1  0  0  0
  5 14  1  0  0  0
M  END
>  <i_m_Spin_multiplicity> (1)
1

>  <s_j_Task> (1)
Single Point

>  <s_j_QM_Method> (1)
DFT(b3lyp-d3)

>  <s_j_QM_Basis> (1)
cc-pvtz(-f)

>  <i_j_Number_of_canonical_orbitals> (1)
209

>  <i_j_Geometry_convergence_category> (1)
0

>  <r_j_Gas_Phase_Energy> (1)
-307.777103505574

>  <r_j_Final_Energy> (1)
-307.777103505574

>  <r_j_HOMO> (1)
-0.253570419973438

>  <r_j_LUMO> (1)
0.0315050934367714

>  <r_j_Polarizability> (1)
54.1636677409943

>  <r_j_QM_Dipole_(debye)> (1)
0.000324713211803354

>  <r_j_QM_Dipole_X_(debye)> (1)
0.000263296176655116

>  <r_j_QM_Dipole_Y_(debye)> (1)
0.000107295135627988

>  <r_j_QM_Dipole_Z_(debye)> (1)
-0.000156848803466967

>  <r_j_Lowest_Frequency_(cm-1)> (1)
274.869683390334

>  <r_j_Highest_Frequency_(cm-1)> (1)
3042.83301953358

>  <r_j_2nd_Lowest_Frequency_(cm-1)> (1)
289.147203367076

>  <i_j_Num_Negative_Frequencies> (1)
0

>  <r_j_Zero_Point_Energy_(kcal/mol)> (1)
76.3024627188451

>  <r_j_Entropy_(cal/mol/K)_298.15K_1.00E+00atm> (1)
72.3311611144159

>  <r_j_Enthalpy_(kcal/mol)_298.15K_1.00E+00atm> (1)
3.80240144942389

>  <r_j_Free_Energy_(kcal/mol)_298.15K_1.00E+00atm> (1)
-17.7631342368392

>  <r_j_Internal_Energy_(kcal/mol)_298.15K_1.00E+00atm> (1)
3.20991586059662

>  <r_j_Heat_Capacity_(cal/mol/K)_298.15K_1.00E+00atm> (1)
19.5191155576855

>  <r_j_ln(Q)_298.15K_1.00E+00atm> (1)
29.980702605777

>  <r_j_Total_Internal_Energy_(au)_298.15K_1.00E+00atm> (1)
-307.650392463939

>  <r_j_Total_Enthalpy_(au)_298.15K_1.00E+00atm> (1)
-307.649448278047

>  <r_j_Total_Free_Energy_(au)_298.15K_1.00E+00atm> (1)
-307.683815146942

>  <r_lp_tautomer_probability> (1)
1

>  <r_epik_Ionization_Penalty> (1)
  0.0000

>  <r_epik_Ionization_Penalty_Charging> (1)
  0.0000

>  <r_epik_Ionization_Penalty_Neutral> (1)
  0.0000

>  <r_epik_State_Penalty> (1)
  0.0000

>  <r_epik_Charging_Adjusted_Penalty> (1)
0

>  <i_epik_Tot_Q> (1)
0

>  <i_epik_Tot_abs_Q> (1)
0

>  <s_lp_Force_Field> (1)
S-OPLS

>  <r_lp_Energy> (1)
4.9648

>  <b_lp_Chiralities_Consistent> (1)
1

$$$$
