31272_N-butyl acetate
                    3D
 Schrodinger Suite 2021-3.
 20 19  0  0  1  0            999 V2000
   -2.0914    1.4004    0.0002 C   0  0  0  0  0  0
   -0.5612    1.4601   -0.0003 C   0  0  0  0  0  0
    0.0817    0.0681   -0.0002 C   0  0  0  0  0  0
    1.5989    0.1387   -0.0002 C   0  0  0  0  0  0
    2.0990   -1.2179   -0.0004 O   0  0  0  0  0  0
    3.4443   -1.3455    0.0001 C   0  0  0  0  0  0
    4.2092   -0.4049    0.0007 O   0  0  0  0  0  0
    3.8669   -2.7969   -0.0002 C   0  0  0  0  0  0
   -2.5307    2.4029    0.0000 H   0  0  0  0  0  0
   -2.4643    0.8714    0.8845 H   0  0  0  0  0  0
   -2.4648    0.8709   -0.8836 H   0  0  0  0  0  0
   -0.2150    2.0217   -0.8785 H   0  0  0  0  0  0
   -0.2146    2.0221    0.8773 H   0  0  0  0  0  0
   -0.2492   -0.4980    0.8796 H   0  0  0  0  0  0
   -0.2492   -0.4982   -0.8798 H   0  0  0  0  0  0
    1.9851    0.6623   -0.8819 H   0  0  0  0  0  0
    1.9851    0.6620    0.8818 H   0  0  0  0  0  0
    3.0120   -3.4732   -0.0011 H   0  0  0  0  0  0
    4.4873   -2.9815    0.8811 H   0  0  0  0  0  0
    4.4886   -2.9808   -0.8807 H   0  0  0  0  0  0
  1  2  1  0  0  0
  1  9  1  0  0  0
  1 10  1  0  0  0
  1 11  1  0  0  0
  2  3  1  0  0  0
  2 12  1  0  0  0
  2 13  1  0  0  0
  3  4  1  0  0  0
  3 14  1  0  0  0
  3 15  1  0  0  0
  4  5  1  0  0  0
  4 16  1  0  0  0
  4 17  1  0  0  0
  5  6  1  0  0  0
  6  7  2  0  0  0
  6  8  1  0  0  0
  8 18  1  0  0  0
  8 19  1  0  0  0
  8 20  1  0  0  0
M  END
>  <i_m_Spin_multiplicity> (1)
1

>  <s_j_Task> (1)
Single Point

>  <s_j_QM_Method> (1)
DFT(b3lyp-d3)

>  <s_j_QM_Basis> (1)
cc-pvtz(-f)

>  <i_j_Number_of_canonical_orbitals> (1)
291

>  <i_j_Geometry_convergence_category> (1)
0

>  <r_j_Gas_Phase_Energy> (1)
-386.486349346699

>  <r_j_Final_Energy> (1)
-386.486349346699

>  <r_j_HOMO> (1)
-0.282137250195038

>  <r_j_LUMO> (1)
-0.00285885340871185

>  <r_j_Polarizability> (1)
80.5291927649917

>  <r_j_QM_Dipole_(debye)> (1)
2.0043001635043

>  <r_j_QM_Dipole_X_(debye)> (1)
-1.82197297308324

>  <r_j_QM_Dipole_Y_(debye)> (1)
-0.835244181917385

>  <r_j_QM_Dipole_Z_(debye)> (1)
-0.000887327867925791

>  <r_j_Lowest_Frequency_(cm-1)> (1)
70.5821422749187

>  <r_j_Highest_Frequency_(cm-1)> (1)
3110.55945263025

>  <r_j_2nd_Lowest_Frequency_(cm-1)> (1)
118.465720887082

>  <i_j_Num_Negative_Frequencies> (1)
0

>  <r_j_Zero_Point_Energy_(kcal/mol)> (1)
109.702719385427

>  <r_j_Entropy_(cal/mol/K)_298.15K_1.00E+00atm> (1)
93.8800407409552

>  <r_j_Enthalpy_(kcal/mol)_298.15K_1.00E+00atm> (1)
6.49687741689598

>  <r_j_Free_Energy_(kcal/mol)_298.15K_1.00E+00atm> (1)
-21.4934567300198

>  <r_j_Internal_Energy_(kcal/mol)_298.15K_1.00E+00atm> (1)
5.90439182806871

>  <r_j_Heat_Capacity_(cal/mol/K)_298.15K_1.00E+00atm> (1)
33.4534135986509

>  <r_j_ln(Q)_298.15K_1.00E+00atm> (1)
36.27675868465

>  <r_j_Total_Internal_Energy_(au)_298.15K_1.00E+00atm> (1)
-386.302117686875

>  <r_j_Total_Enthalpy_(au)_298.15K_1.00E+00atm> (1)
-386.301173500982

>  <r_j_Total_Free_Energy_(au)_298.15K_1.00E+00atm> (1)
-386.345778938008

>  <r_lp_tautomer_probability> (1)
1

>  <r_epik_Ionization_Penalty> (1)
  0.0000

>  <r_epik_Ionization_Penalty_Charging> (1)
  0.0000

>  <r_epik_Ionization_Penalty_Neutral> (1)
  0.0000

>  <r_epik_State_Penalty> (1)
  0.0000

>  <r_epik_Charging_Adjusted_Penalty> (1)
0

>  <i_epik_Tot_Q> (1)
0

>  <i_epik_Tot_abs_Q> (1)
0

>  <s_lp_Force_Field> (1)
S-OPLS

>  <r_lp_Energy> (1)
0.851887

>  <b_lp_Chiralities_Consistent> (1)
1

>  <s_epik_Chemistry_Notes> (1)
This compound has an ester and may undergo hydrolysis at high or low pH.

$$$$
