31288_Diethylene glycol butyl ether acetate
                    3D
 Schrodinger Suite 2021-3.
 34 33  0  0  1  0            999 V2000
   -4.8499    0.8240   -2.5098 C   0  0  0  0  0  0
   -4.0943    1.2401   -1.2444 C   0  0  0  0  0  0
   -2.5855    0.9813   -1.3383 C   0  0  0  0  0  0
   -1.8474    1.3993   -0.0641 C   0  0  0  0  0  0
   -0.4339    1.2919   -0.1533 O   0  0  0  0  0  0
    0.0618   -0.0308   -0.0816 C   0  0  0  0  0  0
    1.5756    0.0224   -0.0767 C   0  0  0  0  0  0
    2.0266    0.3816   -1.3702 O   0  0  0  0  0  0
    3.4244    0.5647   -1.4390 C   0  0  0  0  0  0
    3.7484    0.9507   -2.8712 C   0  0  0  0  0  0
    5.1754    1.1494   -2.9202 O   0  0  0  0  0  0
    5.6754    1.5039   -4.1270 C   0  0  0  0  0  0
    4.9938    1.6493   -5.1172 O   0  0  0  0  0  0
    7.1750    1.6834   -4.0738 C   0  0  0  0  0  0
   -5.9230    1.0213   -2.4192 H   0  0  0  0  0  0
   -4.7224   -0.2458   -2.7110 H   0  0  0  0  0  0
   -4.4817    1.3703   -3.3854 H   0  0  0  0  0  0
   -4.2681    2.3067   -1.0473 H   0  0  0  0  0  0
   -4.5039    0.7008   -0.3791 H   0  0  0  0  0  0
   -2.4135   -0.0835   -1.5413 H   0  0  0  0  0  0
   -2.1567    1.5344   -2.1830 H   0  0  0  0  0  0
   -2.0459    2.4569    0.1448 H   0  0  0  0  0  0
   -2.2235    0.8195    0.7976 H   0  0  0  0  0  0
   -0.2832   -0.5279    0.8421 H   0  0  0  0  0  0
   -0.2677   -0.6424   -0.9347 H   0  0  0  0  0  0
    1.9072    0.7585    0.6730 H   0  0  0  0  0  0
    1.9768   -0.9637    0.2146 H   0  0  0  0  0  0
    3.7607    1.3600   -0.7538 H   0  0  0  0  0  0
    3.9681   -0.3557   -1.1669 H   0  0  0  0  0  0
    3.4532    0.1641   -3.5716 H   0  0  0  0  0  0
    3.2294    1.8697   -3.1581 H   0  0  0  0  0  0
    7.5657    1.5688   -3.0625 H   0  0  0  0  0  0
    7.4243    2.6739   -4.4629 H   0  0  0  0  0  0
    7.6400    0.9463   -4.7347 H   0  0  0  0  0  0
  1  2  1  0  0  0
  1 15  1  0  0  0
  1 16  1  0  0  0
  1 17  1  0  0  0
  2  3  1  0  0  0
  2 18  1  0  0  0
  2 19  1  0  0  0
  3  4  1  0  0  0
  3 20  1  0  0  0
  3 21  1  0  0  0
  4  5  1  0  0  0
  4 22  1  0  0  0
  4 23  1  0  0  0
  5  6  1  0  0  0
  6  7  1  0  0  0
  6 24  1  0  0  0
  6 25  1  0  0  0
  7  8  1  0  0  0
  7 26  1  0  0  0
  7 27  1  0  0  0
  8  9  1  0  0  0
  9 10  1  0  0  0
  9 28  1  0  0  0
  9 29  1  0  0  0
 10 11  1  0  0  0
 10 30  1  0  0  0
 10 31  1  0  0  0
 11 12  1  0  0  0
 12 13  2  0  0  0
 12 14  1  0  0  0
 14 32  1  0  0  0
 14 33  1  0  0  0
 14 34  1  0  0  0
M  END
>  <i_m_Spin_multiplicity> (1)
1

>  <s_j_Task> (1)
Single Point

>  <s_j_QM_Method> (1)
DFT(b3lyp-d3)

>  <s_j_QM_Basis> (1)
cc-pvtz(-f)

>  <i_j_Number_of_canonical_orbitals> (1)
502

>  <i_j_Geometry_convergence_category> (1)
0

>  <r_j_Gas_Phase_Energy> (1)
-694.266236776033

>  <r_j_Final_Energy> (1)
-694.266236776033

>  <r_j_HOMO> (1)
-0.248730001861067

>  <r_j_LUMO> (1)
0.0320766922485984

>  <r_j_Polarizability> (1)
139.763389581141

>  <r_j_QM_Dipole_(debye)> (1)
2.8968538516244

>  <r_j_QM_Dipole_X_(debye)> (1)
0.136138401029032

>  <r_j_QM_Dipole_Y_(debye)> (1)
-1.28535897535635

>  <r_j_QM_Dipole_Z_(debye)> (1)
2.59250474983311

>  <r_j_Lowest_Frequency_(cm-1)> (1)
28.3080843877842

>  <r_j_Highest_Frequency_(cm-1)> (1)
3109.94386854386

>  <r_j_2nd_Lowest_Frequency_(cm-1)> (1)
54.7509727823211

>  <i_j_Num_Negative_Frequencies> (1)
0

>  <r_j_Zero_Point_Energy_(kcal/mol)> (1)
186.777706047932

>  <r_j_Entropy_(cal/mol/K)_298.15K_1.00E+00atm> (1)
127.641955191459

>  <r_j_Enthalpy_(kcal/mol)_298.15K_1.00E+00atm> (1)
10.7681247613654

>  <r_j_Free_Energy_(kcal/mol)_298.15K_1.00E+00atm> (1)
-27.288324178968

>  <r_j_Internal_Energy_(kcal/mol)_298.15K_1.00E+00atm> (1)
10.1756391725381

>  <r_j_Heat_Capacity_(cal/mol/K)_298.15K_1.00E+00atm> (1)
58.887504542237

>  <r_j_ln(Q)_298.15K_1.00E+00atm> (1)
46.0573635773668

>  <r_j_Total_Internal_Energy_(au)_298.15K_1.00E+00atm> (1)
-693.952371639909

>  <r_j_Total_Enthalpy_(au)_298.15K_1.00E+00atm> (1)
-693.951427454017

>  <r_j_Total_Free_Energy_(au)_298.15K_1.00E+00atm> (1)
-694.012074266152

>  <r_lp_tautomer_probability> (1)
1

>  <r_epik_Ionization_Penalty> (1)
  0.0000

>  <r_epik_Ionization_Penalty_Charging> (1)
  0.0000

>  <r_epik_Ionization_Penalty_Neutral> (1)
  0.0000

>  <r_epik_State_Penalty> (1)
  0.0000

>  <r_epik_Charging_Adjusted_Penalty> (1)
0

>  <i_epik_Tot_Q> (1)
0

>  <i_epik_Tot_abs_Q> (1)
0

>  <s_lp_Force_Field> (1)
S-OPLS

>  <r_lp_Energy> (1)
5.181211

>  <b_lp_Chiralities_Consistent> (1)
1

>  <s_epik_Chemistry_Notes> (1)
This compound has an ester and may undergo hydrolysis at high or low pH.

$$$$
