31285_1-nonene
                    3D
 Schrodinger Suite 2021-3.
 27 26  0  0  1  0            999 V2000
   -2.6176    3.0763   -0.0400 C   0  0  0  0  0  0
   -2.1322    1.6265   -0.1311 C   0  0  0  0  0  0
   -0.6109    1.4939    0.0052 C   0  0  0  0  0  0
   -0.1140    0.0464   -0.0790 C   0  0  0  0  0  0
    1.4061   -0.0844    0.0673 C   0  0  0  0  0  0
    1.9024   -1.5325   -0.0050 C   0  0  0  0  0  0
    3.4286   -1.6542    0.1612 C   0  0  0  0  0  0
    3.9149   -3.0725    0.0535 C   0  0  0  0  0  0
    4.5351   -3.7518    1.0181 C   0  0  0  0  0  0
   -3.7060    3.1444   -0.1390 H   0  0  0  0  0  0
   -2.1715    3.6918   -0.8298 H   0  0  0  0  0  0
   -2.3414    3.5245    0.9215 H   0  0  0  0  0  0
   -2.6181    1.0257    0.6499 H   0  0  0  0  0  0
   -2.4486    1.1912   -1.0889 H   0  0  0  0  0  0
   -0.1227    2.0932   -0.7770 H   0  0  0  0  0  0
   -0.2935    1.9322    0.9626 H   0  0  0  0  0  0
   -0.6063   -0.5525    0.7006 H   0  0  0  0  0  0
   -0.4266   -0.3908   -1.0382 H   0  0  0  0  0  0
    1.9001    0.5094   -0.7152 H   0  0  0  0  0  0
    1.7177    0.3583    1.0243 H   0  0  0  0  0  0
    1.4097   -2.1322    0.7715 H   0  0  0  0  0  0
    1.6041   -1.9743   -0.9663 H   0  0  0  0  0  0
    3.9141   -1.0415   -0.6134 H   0  0  0  0  0  0
    3.7283   -1.2295    1.1279 H   0  0  0  0  0  0
    3.7159   -3.5676   -0.8987 H   0  0  0  0  0  0
    4.7500   -3.3001    1.9841 H   0  0  0  0  0  0
    4.8523   -4.7816    0.8814 H   0  0  0  0  0  0
  1  2  1  0  0  0
  1 10  1  0  0  0
  1 11  1  0  0  0
  1 12  1  0  0  0
  2  3  1  0  0  0
  2 13  1  0  0  0
  2 14  1  0  0  0
  3  4  1  0  0  0
  3 15  1  0  0  0
  3 16  1  0  0  0
  4  5  1  0  0  0
  4 17  1  0  0  0
  4 18  1  0  0  0
  5  6  1  0  0  0
  5 19  1  0  0  0
  5 20  1  0  0  0
  6  7  1  0  0  0
  6 21  1  0  0  0
  6 22  1  0  0  0
  7  8  1  0  0  0
  7 23  1  0  0  0
  7 24  1  0  0  0
  8  9  2  0  0  0
  8 25  1  0  0  0
  9 26  1  0  0  0
  9 27  1  0  0  0
M  END
>  <i_m_Spin_multiplicity> (1)
1

>  <s_j_Task> (1)
Single Point

>  <s_j_QM_Method> (1)
DFT(b3lyp-d3)

>  <s_j_QM_Basis> (1)
cc-pvtz(-f)

>  <i_j_Number_of_canonical_orbitals> (1)
365

>  <i_j_Geometry_convergence_category> (1)
3

>  <r_j_Gas_Phase_Energy> (1)
-353.932424179964

>  <r_j_Final_Energy> (1)
-353.932424179964

>  <r_j_HOMO> (1)
-0.27607708822918

>  <r_j_LUMO> (1)
-0.0097701470192362

>  <r_j_Polarizability> (1)
112.033304201511

>  <r_j_QM_Dipole_(debye)> (1)
0.447956088218789

>  <r_j_QM_Dipole_X_(debye)> (1)
-0.297854965349673

>  <r_j_QM_Dipole_Y_(debye)> (1)
0.288706440549441

>  <r_j_QM_Dipole_Z_(debye)> (1)
-0.1691025362734

>  <r_j_Lowest_Frequency_(cm-1)> (1)
64.9039030109747

>  <r_j_Highest_Frequency_(cm-1)> (1)
3166.8267838317

>  <r_j_2nd_Lowest_Frequency_(cm-1)> (1)
86.7513844195624

>  <i_j_Num_Negative_Frequencies> (1)
0

>  <r_j_Zero_Point_Energy_(kcal/mol)> (1)
157.165800297629

>  <r_j_Entropy_(cal/mol/K)_298.15K_1.00E+00atm> (1)
101.679022113645

>  <r_j_Enthalpy_(kcal/mol)_298.15K_1.00E+00atm> (1)
7.55912849189662

>  <r_j_Free_Energy_(kcal/mol)_298.15K_1.00E+00atm> (1)
-22.7564719512867

>  <r_j_Internal_Energy_(kcal/mol)_298.15K_1.00E+00atm> (1)
6.96664290306934

>  <r_j_Heat_Capacity_(cal/mol/K)_298.15K_1.00E+00atm> (1)
41.0830788814243

>  <r_j_ln(Q)_298.15K_1.00E+00atm> (1)
38.4084817933366

>  <r_j_Total_Internal_Energy_(au)_298.15K_1.00E+00atm> (1)
-353.670862480822

>  <r_j_Total_Enthalpy_(au)_298.15K_1.00E+00atm> (1)
-353.66991829493

>  <r_j_Total_Free_Energy_(au)_298.15K_1.00E+00atm> (1)
-353.718229279692

>  <r_lp_tautomer_probability> (1)
1

>  <r_epik_Ionization_Penalty> (1)
  0.0000

>  <r_epik_Ionization_Penalty_Charging> (1)
  0.0000

>  <r_epik_Ionization_Penalty_Neutral> (1)
  0.0000

>  <r_epik_State_Penalty> (1)
  0.0000

>  <r_epik_Charging_Adjusted_Penalty> (1)
0

>  <i_epik_Tot_Q> (1)
0

>  <i_epik_Tot_abs_Q> (1)
0

>  <s_lp_Force_Field> (1)
S-OPLS

>  <r_lp_Energy> (1)
0.950436

>  <b_lp_Chiralities_Consistent> (1)
1

$$$$
