31284_Methyl myristate
                    3D
 Schrodinger Suite 2021-3.
 47 46  0  0  1  0            999 V2000
   -6.3267    4.6697   -0.3516 C   0  0  0  0  0  0
   -4.7980    4.5797   -0.3287 C   0  0  0  0  0  0
   -4.2813    3.1438   -0.1785 C   0  0  0  0  0  0
   -2.7518    3.0486   -0.1580 C   0  0  0  0  0  0
   -2.2254    1.6160   -0.0144 C   0  0  0  0  0  0
   -0.6948    1.5341   -0.0042 C   0  0  0  0  0  0
   -0.1544    0.1057    0.1271 C   0  0  0  0  0  0
    1.3771    0.0376    0.1219 C   0  0  0  0  0  0
    1.9295   -1.3876    0.2384 C   0  0  0  0  0  0
    3.4633   -1.4367    0.2247 C   0  0  0  0  0  0
    4.0578   -2.8531    0.2444 C   0  0  0  0  0  0
    3.7624   -3.6381    1.5279 C   0  0  0  0  0  0
    4.4474   -5.0049    1.5456 C   0  0  0  0  0  0
    4.1356   -5.8015    2.7954 C   0  0  0  0  0  0
    3.3632   -5.4726    3.6701 O   0  0  0  0  0  0
    4.8361   -6.9599    2.8188 O   0  0  0  0  0  0
    4.5991   -7.7928    3.9666 C   0  0  0  0  0  0
   -6.6681    5.7045   -0.4602 H   0  0  0  0  0  0
   -6.7590    4.2710    0.5734 H   0  0  0  0  0  0
   -6.7430    4.0918   -1.1850 H   0  0  0  0  0  0
   -4.3899    5.0150   -1.2512 H   0  0  0  0  0  0
   -4.4055    5.1923    0.4945 H   0  0  0  0  0  0
   -4.6869    2.7064    0.7453 H   0  0  0  0  0  0
   -4.6740    2.5289   -1.0013 H   0  0  0  0  0  0
   -2.3492    3.4910   -1.0807 H   0  0  0  0  0  0
   -2.3610    3.6628    0.6661 H   0  0  0  0  0  0
   -2.6209    1.1727    0.9107 H   0  0  0  0  0  0
   -2.6174    1.0002   -0.8366 H   0  0  0  0  0  0
   -0.3027    1.9856   -0.9270 H   0  0  0  0  0  0
   -0.3040    2.1471    0.8207 H   0  0  0  0  0  0
   -0.5369   -0.3461    1.0535 H   0  0  0  0  0  0
   -0.5486   -0.5094   -0.6947 H   0  0  0  0  0  0
    1.7567    0.4995   -0.8010 H   0  0  0  0  0  0
    1.7702    0.6476    0.9480 H   0  0  0  0  0  0
    1.5467   -1.8453    1.1597 H   0  0  0  0  0  0
    1.5406   -1.9981   -0.5897 H   0  0  0  0  0  0
    3.8249   -0.9146   -0.6714 H   0  0  0  0  0  0
    3.8512   -0.8697    1.0831 H   0  0  0  0  0  0
    3.6821   -3.4166   -0.6221 H   0  0  0  0  0  0
    5.1462   -2.7832    0.1112 H   0  0  0  0  0  0
    4.0894   -3.0607    2.4015 H   0  0  0  0  0  0
    2.6850   -3.7843    1.6546 H   0  0  0  0  0  0
    4.1433   -5.6115    0.6821 H   0  0  0  0  0  0
    5.5375   -4.9108    1.4662 H   0  0  0  0  0  0
    5.2383   -8.6662    3.8365 H   0  0  0  0  0  0
    3.5482   -8.0905    4.0177 H   0  0  0  0  0  0
    4.8553   -7.2628    4.8880 H   0  0  0  0  0  0
  1  2  1  0  0  0
  1 18  1  0  0  0
  1 19  1  0  0  0
  1 20  1  0  0  0
  2  3  1  0  0  0
  2 21  1  0  0  0
  2 22  1  0  0  0
  3  4  1  0  0  0
  3 23  1  0  0  0
  3 24  1  0  0  0
  4  5  1  0  0  0
  4 25  1  0  0  0
  4 26  1  0  0  0
  5  6  1  0  0  0
  5 27  1  0  0  0
  5 28  1  0  0  0
  6  7  1  0  0  0
  6 29  1  0  0  0
  6 30  1  0  0  0
  7  8  1  0  0  0
  7 31  1  0  0  0
  7 32  1  0  0  0
  8  9  1  0  0  0
  8 33  1  0  0  0
  8 34  1  0  0  0
  9 10  1  0  0  0
  9 35  1  0  0  0
  9 36  1  0  0  0
 10 11  1  0  0  0
 10 37  1  0  0  0
 10 38  1  0  0  0
 11 12  1  0  0  0
 11 39  1  0  0  0
 11 40  1  0  0  0
 12 13  1  0  0  0
 12 41  1  0  0  0
 12 42  1  0  0  0
 13 14  1  0  0  0
 13 43  1  0  0  0
 13 44  1  0  0  0
 14 15  2  0  0  0
 14 16  1  0  0  0
 16 17  1  0  0  0
 17 45  1  0  0  0
 17 46  1  0  0  0
 17 47  1  0  0  0
M  END
>  <i_m_Spin_multiplicity> (1)
1

>  <s_j_Task> (1)
Single Point

>  <s_j_QM_Method> (1)
DFT(b3lyp-d3)

>  <s_j_QM_Basis> (1)
cc-pvtz(-f)

>  <i_j_Number_of_canonical_orbitals> (1)
656

>  <i_j_Geometry_convergence_category> (1)
3

>  <r_j_Gas_Phase_Energy> (1)
-740.447044170089

>  <r_j_Final_Energy> (1)
-740.447044170089

>  <r_j_HOMO> (1)
-0.286752608338189

>  <r_j_LUMO> (1)
-0.0405914447106298

>  <r_j_Polarizability> (1)
192.099164418232

>  <r_j_QM_Dipole_(debye)> (1)
1.58043991028999

>  <r_j_QM_Dipole_X_(debye)> (1)
1.07376802239782

>  <r_j_QM_Dipole_Y_(debye)> (1)
-0.741400849230666

>  <r_j_QM_Dipole_Z_(debye)> (1)
-0.891704729646168

>  <r_j_Lowest_Frequency_(cm-1)> (1)
28.9949170435934

>  <r_j_Highest_Frequency_(cm-1)> (1)
3107.32827819744

>  <r_j_2nd_Lowest_Frequency_(cm-1)> (1)
50.5437031022384

>  <i_j_Num_Negative_Frequencies> (1)
0

>  <r_j_Zero_Point_Energy_(kcal/mol)> (1)
270.749289716864

>  <r_j_Entropy_(cal/mol/K)_298.15K_1.00E+00atm> (1)
145.463944194467

>  <r_j_Enthalpy_(kcal/mol)_298.15K_1.00E+00atm> (1)
13.3262297339706

>  <r_j_Free_Energy_(kcal/mol)_298.15K_1.00E+00atm> (1)
-30.0438452276097

>  <r_j_Internal_Energy_(kcal/mol)_298.15K_1.00E+00atm> (1)
12.7337441451434

>  <r_j_Heat_Capacity_(cal/mol/K)_298.15K_1.00E+00atm> (1)
76.0226644057287

>  <r_j_ln(Q)_298.15K_1.00E+00atm> (1)
50.7081451332453

>  <r_j_Total_Internal_Energy_(au)_298.15K_1.00E+00atm> (1)
-739.995285196855

>  <r_j_Total_Enthalpy_(au)_298.15K_1.00E+00atm> (1)
-739.994341010963

>  <r_j_Total_Free_Energy_(au)_298.15K_1.00E+00atm> (1)
-740.06345562522

>  <r_lp_tautomer_probability> (1)
1

>  <r_epik_Ionization_Penalty> (1)
  0.0000

>  <r_epik_Ionization_Penalty_Charging> (1)
  0.0000

>  <r_epik_Ionization_Penalty_Neutral> (1)
  0.0000

>  <r_epik_State_Penalty> (1)
  0.0000

>  <r_epik_Charging_Adjusted_Penalty> (1)
0

>  <i_epik_Tot_Q> (1)
0

>  <i_epik_Tot_abs_Q> (1)
0

>  <s_lp_Force_Field> (1)
S-OPLS

>  <r_lp_Energy> (1)
6.16948

>  <b_lp_Chiralities_Consistent> (1)
1

>  <s_epik_Chemistry_Notes> (1)
This compound has an ester and may undergo hydrolysis at high or low pH.

$$$$
