31291_Tetradecanal
                    3D
 Schrodinger Suite 2021-3.
 43 42  0  0  1  0            999 V2000
   -6.1978    4.7165   -0.1643 C   0  0  0  0  0  0
   -4.6705    4.6052   -0.1857 C   0  0  0  0  0  0
   -4.1715    3.1597   -0.0746 C   0  0  0  0  0  0
   -2.6435    3.0404   -0.0915 C   0  0  0  0  0  0
   -2.1415    1.5960    0.0126 C   0  0  0  0  0  0
   -0.6129    1.4814    0.0046 C   0  0  0  0  0  0
   -0.1104    0.0363    0.0965 C   0  0  0  0  0  0
    1.4204   -0.0706    0.1126 C   0  0  0  0  0  0
    1.9572   -1.5100    0.0952 C   0  0  0  0  0  0
    1.5878   -2.3392    1.3323 C   0  0  0  0  0  0
    2.1986   -3.7446    1.3145 C   0  0  0  0  0  0
    1.8066   -4.5855    2.5346 C   0  0  0  0  0  0
    2.4238   -5.9967    2.5081 C   0  0  0  0  0  0
    1.9409   -6.8340    3.6684 C   0  0  0  0  0  0
    2.6547   -7.3223    4.5161 O   0  0  0  0  0  0
   -6.5275    5.7575   -0.2464 H   0  0  0  0  0  0
   -6.6096    4.3085    0.7661 H   0  0  0  0  0  0
   -6.6453    4.1583   -0.9948 H   0  0  0  0  0  0
   -4.2818    5.0508   -1.1116 H   0  0  0  0  0  0
   -4.2466    5.1976    0.6367 H   0  0  0  0  0  0
   -4.5617    2.7111    0.8505 H   0  0  0  0  0  0
   -4.5927    2.5661   -0.8988 H   0  0  0  0  0  0
   -2.2539    3.4940   -1.0141 H   0  0  0  0  0  0
   -2.2242    3.6309    0.7357 H   0  0  0  0  0  0
   -2.5351    1.1393    0.9321 H   0  0  0  0  0  0
   -2.5549    1.0064   -0.8183 H   0  0  0  0  0  0
   -0.2176    1.9466   -0.9098 H   0  0  0  0  0  0
   -0.2010    2.0632    0.8417 H   0  0  0  0  0  0
   -0.5279   -0.4281    0.9994 H   0  0  0  0  0  0
   -0.5049   -0.5411   -0.7524 H   0  0  0  0  0  0
    1.8216    0.4671   -0.7572 H   0  0  0  0  0  0
    1.8102    0.4519    0.9979 H   0  0  0  0  0  0
    1.5890   -2.0227   -0.8051 H   0  0  0  0  0  0
    3.0514   -1.4820    0.0022 H   0  0  0  0  0  0
    1.9178   -1.8087    2.2370 H   0  0  0  0  0  0
    0.4966   -2.4269    1.4116 H   0  0  0  0  0  0
    1.8846   -4.2672    0.3997 H   0  0  0  0  0  0
    3.2935   -3.6690    1.2609 H   0  0  0  0  0  0
    2.1205   -4.0718    3.4526 H   0  0  0  0  0  0
    0.7116   -4.6652    2.5851 H   0  0  0  0  0  0
    2.1230   -6.5011    1.5776 H   0  0  0  0  0  0
    3.5170   -5.9559    2.5379 H   0  0  0  0  0  0
    0.8335   -6.9683    3.7105 H   0  0  0  0  0  0
  1  2  1  0  0  0
  1 16  1  0  0  0
  1 17  1  0  0  0
  1 18  1  0  0  0
  2  3  1  0  0  0
  2 19  1  0  0  0
  2 20  1  0  0  0
  3  4  1  0  0  0
  3 21  1  0  0  0
  3 22  1  0  0  0
  4  5  1  0  0  0
  4 23  1  0  0  0
  4 24  1  0  0  0
  5  6  1  0  0  0
  5 25  1  0  0  0
  5 26  1  0  0  0
  6  7  1  0  0  0
  6 27  1  0  0  0
  6 28  1  0  0  0
  7  8  1  0  0  0
  7 29  1  0  0  0
  7 30  1  0  0  0
  8  9  1  0  0  0
  8 31  1  0  0  0
  8 32  1  0  0  0
  9 10  1  0  0  0
  9 33  1  0  0  0
  9 34  1  0  0  0
 10 11  1  0  0  0
 10 35  1  0  0  0
 10 36  1  0  0  0
 11 12  1  0  0  0
 11 37  1  0  0  0
 11 38  1  0  0  0
 12 13  1  0  0  0
 12 39  1  0  0  0
 12 40  1  0  0  0
 13 14  1  0  0  0
 13 41  1  0  0  0
 13 42  1  0  0  0
 14 15  2  0  0  0
 14 43  1  0  0  0
M  END
>  <i_m_Spin_multiplicity> (1)
1

>  <s_j_Task> (1)
Single Point

>  <s_j_QM_Method> (1)
DFT(b3lyp-d3)

>  <s_j_QM_Basis> (1)
cc-pvtz(-f)

>  <i_j_Number_of_canonical_orbitals> (1)
593

>  <i_j_Geometry_convergence_category> (1)
0

>  <r_j_Gas_Phase_Energy> (1)
-625.843426067962

>  <r_j_Final_Energy> (1)
-625.843426067962

>  <r_j_HOMO> (1)
-0.291639855691248

>  <r_j_LUMO> (1)
-0.086091554808112

>  <r_j_Polarizability> (1)
176.364872636778

>  <r_j_QM_Dipole_(debye)> (1)
3.15293972614653

>  <r_j_QM_Dipole_X_(debye)> (1)
-1.19256544332448

>  <r_j_QM_Dipole_Y_(debye)> (1)
1.82577739886248

>  <r_j_QM_Dipole_Z_(debye)> (1)
-2.27713712145409

>  <r_j_Lowest_Frequency_(cm-1)> (1)
31.2139333693131

>  <r_j_Highest_Frequency_(cm-1)> (1)
3049.84511390348

>  <r_j_2nd_Lowest_Frequency_(cm-1)> (1)
61.4926875073198

>  <i_j_Num_Negative_Frequencies> (1)
0

>  <r_j_Zero_Point_Energy_(kcal/mol)> (1)
249.51225619533

>  <r_j_Entropy_(cal/mol/K)_298.15K_1.00E+00atm> (1)
135.874821193471

>  <r_j_Enthalpy_(kcal/mol)_298.15K_1.00E+00atm> (1)
11.954857240722

>  <r_j_Free_Energy_(kcal/mol)_298.15K_1.00E+00atm> (1)
-28.5562206981115

>  <r_j_Internal_Energy_(kcal/mol)_298.15K_1.00E+00atm> (1)
11.3623716518947

>  <r_j_Heat_Capacity_(cal/mol/K)_298.15K_1.00E+00atm> (1)
67.7209800247281

>  <r_j_ln(Q)_298.15K_1.00E+00atm> (1)
48.1973253638687

>  <r_j_Total_Internal_Energy_(au)_298.15K_1.00E+00atm> (1)
-625.427695883289

>  <r_j_Total_Enthalpy_(au)_298.15K_1.00E+00atm> (1)
-625.426751697397

>  <r_j_Total_Free_Energy_(au)_298.15K_1.00E+00atm> (1)
-625.491310209858

>  <r_lp_tautomer_probability> (1)
1

>  <r_epik_Ionization_Penalty> (1)
  0.0000

>  <r_epik_Ionization_Penalty_Charging> (1)
  0.0000

>  <r_epik_Ionization_Penalty_Neutral> (1)
  0.0000

>  <r_epik_State_Penalty> (1)
  0.0000

>  <r_epik_Charging_Adjusted_Penalty> (1)
0

>  <i_epik_Tot_Q> (1)
0

>  <i_epik_Tot_abs_Q> (1)
0

>  <s_lp_Force_Field> (1)
S-OPLS

>  <r_lp_Energy> (1)
6.744855

>  <b_lp_Chiralities_Consistent> (1)
1

$$$$
