31404_Butylated Hydroxytoluene
                    3D
 Schrodinger Suite 2021-3.
 40 40  0  0  1  0            999 V2000
   -0.0547   -0.0139    0.0032 C   0  0  0  0  0  0
    1.4569   -0.0013    0.0016 C   0  0  0  0  0  0
    2.1734    1.1941    0.0004 C   0  0  0  0  0  0
    3.5716    1.2403   -0.0007 C   0  0  0  0  0  0
    4.2534    0.0033   -0.0003 C   0  0  0  0  0  0
    3.5709   -1.2379    0.0001 C   0  0  0  0  0  0
    2.1730   -1.1975    0.0012 C   0  0  0  0  0  0
    4.3262   -2.5890   -0.0004 C   0  0  0  0  0  0
    3.3636   -3.7948   -0.0016 C   0  0  0  0  0  0
    5.1903   -2.7297    1.2813 C   0  0  0  0  0  0
    5.1912   -2.7287   -1.2817 C   0  0  0  0  0  0
    5.6314    0.0724    0.0003 O   0  0  0  0  0  0
    4.3302    2.5869   -0.0008 C   0  0  0  0  0  0
    5.2058    2.7066    1.2709 C   0  0  0  0  0  0
    3.3651    3.7899   -0.0027 C   0  0  0  0  0  0
    5.2098    2.7056   -1.2697 C   0  0  0  0  0  0
   -0.4638    1.0006    0.0062 H   0  0  0  0  0  0
   -0.4503   -0.5340    0.8837 H   0  0  0  0  0  0
   -0.4524   -0.5296   -0.8791 H   0  0  0  0  0  0
    1.6117    2.1198    0.0007 H   0  0  0  0  0  0
    1.6104   -2.1234    0.0019 H   0  0  0  0  0  0
    3.9449   -4.7227    0.0004 H   0  0  0  0  0  0
    2.7260   -3.8063   -0.8907 H   0  0  0  0  0  0
    2.7221   -3.8049    0.8847 H   0  0  0  0  0  0
    4.5473   -2.7179    2.1665 H   0  0  0  0  0  0
    5.9218   -1.9289    1.4216 H   0  0  0  0  0  0
    5.7394   -3.6775    1.2686 H   0  0  0  0  0  0
    5.7400   -3.6766   -1.2694 H   0  0  0  0  0  0
    5.9232   -1.9282   -1.4210 H   0  0  0  0  0  0
    4.5488   -2.7159   -2.1674 H   0  0  0  0  0  0
    6.0041   -0.8129    0.0008 H   0  0  0  0  0  0
    5.7268    3.6710    1.2766 H   0  0  0  0  0  0
    5.9515    1.9137    1.3240 H   0  0  0  0  0  0
    4.5819    2.6550    2.1699 H   0  0  0  0  0  0
    2.7259    3.8045    0.8860 H   0  0  0  0  0  0
    2.7245    3.8026   -0.8907 H   0  0  0  0  0  0
    3.9468    4.7175   -0.0039 H   0  0  0  0  0  0
    5.7304    3.6704   -1.2745 H   0  0  0  0  0  0
    4.5888    2.6531   -2.1706 H   0  0  0  0  0  0
    5.9561    1.9131   -1.3197 H   0  0  0  0  0  0
  1  2  1  0  0  0
  1 17  1  0  0  0
  1 18  1  0  0  0
  1 19  1  0  0  0
  2  7  1  0  0  0
  2  3  2  0  0  0
  3  4  1  0  0  0
  3 20  1  0  0  0
  4  5  2  0  0  0
  4 13  1  0  0  0
  5  6  1  0  0  0
  5 12  1  0  0  0
  6  7  2  0  0  0
  6  8  1  0  0  0
  7 21  1  0  0  0
  8  9  1  0  0  0
  8 10  1  0  0  0
  8 11  1  0  0  0
  9 22  1  0  0  0
  9 23  1  0  0  0
  9 24  1  0  0  0
 10 25  1  0  0  0
 10 26  1  0  0  0
 10 27  1  0  0  0
 11 28  1  0  0  0
 11 29  1  0  0  0
 11 30  1  0  0  0
 12 31  1  0  0  0
 13 14  1  0  0  0
 13 15  1  0  0  0
 13 16  1  0  0  0
 14 32  1  0  0  0
 14 33  1  0  0  0
 14 34  1  0  0  0
 15 35  1  0  0  0
 15 36  1  0  0  0
 15 37  1  0  0  0
 16 38  1  0  0  0
 16 39  1  0  0  0
 16 40  1  0  0  0
M  END
>  <i_m_Spin_multiplicity> (1)
1

>  <s_j_Task> (1)
Single Point

>  <s_j_QM_Method> (1)
DFT(b3lyp-d3)

>  <s_j_QM_Basis> (1)
cc-pvtz(-f)

>  <i_j_Number_of_canonical_orbitals> (1)
576

>  <i_j_Geometry_convergence_category> (1)
3

>  <r_j_Gas_Phase_Energy> (1)
-661.546720748826

>  <r_j_Final_Energy> (1)
-661.546720748826

>  <r_j_HOMO> (1)
-0.212220345560739

>  <r_j_LUMO> (1)
-0.00590032060899617

>  <r_j_Polarizability> (1)
182.721369813145

>  <r_j_QM_Dipole_(debye)> (1)
1.87159524270149

>  <r_j_QM_Dipole_X_(debye)> (1)
0.00324254809812071

>  <r_j_QM_Dipole_Y_(debye)> (1)
-1.87159160721736

>  <r_j_QM_Dipole_Z_(debye)> (1)
0.00175902764001804

>  <r_j_Lowest_Frequency_(cm-1)> (1)
67.0959563414648

>  <r_j_Highest_Frequency_(cm-1)> (1)
3834.71600074954

>  <r_j_2nd_Lowest_Frequency_(cm-1)> (1)
91.9186605443625

>  <i_j_Num_Negative_Frequencies> (1)
0

>  <r_j_Zero_Point_Energy_(kcal/mol)> (1)
223.970265460504

>  <r_j_Entropy_(cal/mol/K)_298.15K_1.00E+00atm> (1)
124.739235223392

>  <r_j_Enthalpy_(kcal/mol)_298.15K_1.00E+00atm> (1)
11.2916711538997

>  <r_j_Free_Energy_(kcal/mol)_298.15K_1.00E+00atm> (1)
-25.8993318279545

>  <r_j_Internal_Energy_(kcal/mol)_298.15K_1.00E+00atm> (1)
10.6991855650725

>  <r_j_Heat_Capacity_(cal/mol/K)_298.15K_1.00E+00atm> (1)
70.1779881887174

>  <r_j_ln(Q)_298.15K_1.00E+00atm> (1)
43.7130156688162

>  <r_j_Total_Internal_Energy_(au)_298.15K_1.00E+00atm> (1)
-661.17275117188

>  <r_j_Total_Enthalpy_(au)_298.15K_1.00E+00atm> (1)
-661.171806985988

>  <r_j_Total_Free_Energy_(au)_298.15K_1.00E+00atm> (1)
-661.231074622191

>  <r_lp_tautomer_probability> (1)
1

>  <r_epik_Ionization_Penalty> (1)
  0.0000

>  <r_epik_Ionization_Penalty_Charging> (1)
  0.0000

>  <r_epik_Ionization_Penalty_Neutral> (1)
  0.0000

>  <r_epik_State_Penalty> (1)
  0.0000

>  <r_epik_Charging_Adjusted_Penalty> (1)
0

>  <i_epik_Tot_Q> (1)
0

>  <i_epik_Tot_abs_Q> (1)
0

>  <s_lp_Force_Field> (1)
S-OPLS

>  <r_lp_Energy> (1)
22.624

>  <b_lp_Chiralities_Consistent> (1)
1

$$$$
