316565_Propenylcyclohexane
                    3D
 Schrodinger Suite 2021-3.
 25 25  0  0  1  0            999 V2000
   -0.0733   -0.0186    0.1687 C   0  0  0  0  0  0
    1.4261   -0.0635    0.2464 C   0  0  0  0  0  0
    2.1938   -1.0507   -0.2195 C   0  0  0  0  0  0
    3.6960   -1.1038   -0.1465 C   0  0  0  0  0  0
    4.1744   -2.3215    0.6768 C   0  0  0  0  0  0
    5.7068   -2.4163    0.7290 C   0  0  0  0  0  0
    6.3149   -2.4469   -0.6810 C   0  0  0  0  0  0
    5.8566   -1.2349   -1.5056 C   0  0  0  0  0  0
    4.3243   -1.1397   -1.5585 C   0  0  0  0  0  0
   -0.4168    0.8631   -0.3877 H   0  0  0  0  0  0
   -0.5218    0.0486    1.1684 H   0  0  0  0  0  0
   -0.4780   -0.9083   -0.3243 H   0  0  0  0  0  0
    1.9070    0.7904    0.7270 H   0  0  0  0  0  0
    1.7173   -1.9082   -0.7016 H   0  0  0  0  0  0
    4.0551   -0.1939    0.3585 H   0  0  0  0  0  0
    3.7562   -2.2669    1.6886 H   0  0  0  0  0  0
    3.7694   -3.2367    0.2198 H   0  0  0  0  0  0
    6.1025   -1.5465    1.2729 H   0  0  0  0  0  0
    6.0104   -3.3039    1.2968 H   0  0  0  0  0  0
    7.4095   -2.4801   -0.6252 H   0  0  0  0  0  0
    5.9979   -3.3689   -1.1896 H   0  0  0  0  0  0
    6.2583   -0.3178   -1.0513 H   0  0  0  0  0  0
    6.2665   -1.2854   -2.5215 H   0  0  0  0  0  0
    3.9247   -2.0104   -2.0997 H   0  0  0  0  0  0
    4.0116   -0.2525   -2.1212 H   0  0  0  0  0  0
  1  2  1  0  0  0
  1 10  1  0  0  0
  1 11  1  0  0  0
  1 12  1  0  0  0
  2  3  2  0  0  0
  2 13  1  0  0  0
  3  4  1  0  0  0
  3 14  1  0  0  0
  4  9  1  0  0  0
  4  5  1  0  0  0
  4 15  1  0  0  0
  5  6  1  0  0  0
  5 16  1  0  0  0
  5 17  1  0  0  0
  6  7  1  0  0  0
  6 18  1  0  0  0
  6 19  1  0  0  0
  7  8  1  0  0  0
  7 20  1  0  0  0
  7 21  1  0  0  0
  8  9  1  0  0  0
  8 22  1  0  0  0
  8 23  1  0  0  0
  9 24  1  0  0  0
  9 25  1  0  0  0
M  END
>  <i_m_Spin_multiplicity> (1)
1

>  <s_j_Task> (1)
Single Point

>  <s_j_QM_Method> (1)
DFT(b3lyp-d3)

>  <s_j_QM_Basis> (1)
cc-pvtz(-f)

>  <i_j_Number_of_canonical_orbitals> (1)
347

>  <i_j_Geometry_convergence_category> (1)
0

>  <r_j_Gas_Phase_Energy> (1)
-352.728939478507

>  <r_j_Final_Energy> (1)
-352.728939478507

>  <r_j_HOMO> (1)
-0.246838918368588

>  <r_j_LUMO> (1)
0.0140771887054207

>  <r_j_Polarizability> (1)
107.456325492924

>  <r_j_QM_Dipole_(debye)> (1)
0.0793876304454317

>  <r_j_QM_Dipole_X_(debye)> (1)
0.062639356428994

>  <r_j_QM_Dipole_Y_(debye)> (1)
0.0415717560085515

>  <r_j_QM_Dipole_Z_(debye)> (1)
0.0255048230001179

>  <r_j_Lowest_Frequency_(cm-1)> (1)
101.091753045838

>  <r_j_Highest_Frequency_(cm-1)> (1)
3074.97801697437

>  <r_j_2nd_Lowest_Frequency_(cm-1)> (1)
121.958550064317

>  <i_j_Num_Negative_Frequencies> (1)
0

>  <r_j_Zero_Point_Energy_(kcal/mol)> (1)
144.574311994532

>  <r_j_Entropy_(cal/mol/K)_298.15K_1.00E+00atm> (1)
91.7281444426759

>  <r_j_Enthalpy_(kcal/mol)_298.15K_1.00E+00atm> (1)
6.2985420383038

>  <r_j_Free_Energy_(kcal/mol)_298.15K_1.00E+00atm> (1)
-21.05020422728

>  <r_j_Internal_Energy_(kcal/mol)_298.15K_1.00E+00atm> (1)
5.70605644947652

>  <r_j_Heat_Capacity_(cal/mol/K)_298.15K_1.00E+00atm> (1)
36.2095537139837

>  <r_j_ln(Q)_298.15K_1.00E+00atm> (1)
35.52863499844

>  <r_j_Total_Internal_Energy_(au)_298.15K_1.00E+00atm> (1)
-352.489452465755

>  <r_j_Total_Enthalpy_(au)_298.15K_1.00E+00atm> (1)
-352.488508279863

>  <r_j_Total_Free_Energy_(au)_298.15K_1.00E+00atm> (1)
-352.532091281511

>  <r_lp_tautomer_probability> (1)
1

>  <r_epik_Ionization_Penalty> (1)
  0.0000

>  <r_epik_Ionization_Penalty_Charging> (1)
  0.0000

>  <r_epik_Ionization_Penalty_Neutral> (1)
  0.0000

>  <r_epik_State_Penalty> (1)
  0.0000

>  <r_epik_Charging_Adjusted_Penalty> (1)
0

>  <i_epik_Tot_Q> (1)
0

>  <i_epik_Tot_abs_Q> (1)
0

>  <s_lp_Force_Field> (1)
S-OPLS

>  <r_lp_Energy> (1)
-0.274611

>  <b_lp_Chiralities_Consistent> (1)
1

$$$$
