316554_1-methyl-2-propyl cyclopentane
                    3D
 Schrodinger Suite 2021-3.
 27 27  0  0  1  0            999 V2000
   -0.5919    1.5010    0.1015 C   0  0  0  0  0  0
   -0.0719    0.0647   -0.0107 C   0  0  0  0  0  0
    1.4605   -0.0163   -0.0055 C   0  0  0  0  0  0
    2.0118   -1.4437   -0.0565 C   0  0  0  0  0  0
    1.6493   -2.2282   -1.3359 C   0  0  0  0  0  0
    2.7061   -3.3625   -1.4492 C   0  0  0  0  0  0
    3.8076   -3.0135   -0.4125 C   0  0  0  0  0  0
    3.5520   -1.5465   -0.0163 C   0  0  0  0  0  0
    4.1953   -1.1425    1.3091 C   0  0  0  0  0  0
   -1.6863    1.5355    0.0958 H   0  0  0  0  0  0
   -0.2343    2.1154   -0.7329 H   0  0  0  0  0  0
   -0.2477    1.9736    1.0288 H   0  0  0  0  0  0
   -0.4662   -0.5360    0.8206 H   0  0  0  0  0  0
   -0.4607   -0.3939   -0.9285 H   0  0  0  0  0  0
    1.8572    0.5501   -0.8615 H   0  0  0  0  0  0
    1.8364    0.4890    0.8947 H   0  0  0  0  0  0
    1.6235   -1.9968    0.8150 H   0  0  0  0  0  0
    0.6231   -2.6071   -1.3225 H   0  0  0  0  0  0
    1.7238   -1.5515   -2.1976 H   0  0  0  0  0  0
    2.2671   -4.3430   -1.2397 H   0  0  0  0  0  0
    3.1133   -3.4157   -2.4639 H   0  0  0  0  0  0
    3.7012   -3.6439    0.4801 H   0  0  0  0  0  0
    4.8218   -3.1742   -0.7927 H   0  0  0  0  0  0
    3.9465   -0.8958   -0.8134 H   0  0  0  0  0  0
    3.7970   -1.7482    2.1324 H   0  0  0  0  0  0
    4.0102   -0.0901    1.5479 H   0  0  0  0  0  0
    5.2805   -1.2891    1.2834 H   0  0  0  0  0  0
  1  2  1  0  0  0
  1 10  1  0  0  0
  1 11  1  0  0  0
  1 12  1  0  0  0
  2  3  1  0  0  0
  2 13  1  0  0  0
  2 14  1  0  0  0
  3  4  1  0  0  0
  3 15  1  0  0  0
  3 16  1  0  0  0
  4  8  1  0  0  0
  4  5  1  0  0  0
  4 17  1  0  0  0
  5  6  1  0  0  0
  5 18  1  0  0  0
  5 19  1  0  0  0
  6  7  1  0  0  0
  6 20  1  0  0  0
  6 21  1  0  0  0
  7  8  1  0  0  0
  7 22  1  0  0  0
  7 23  1  0  0  0
  8  9  1  0  0  0
  8 24  1  0  0  0
  9 25  1  0  0  0
  9 26  1  0  0  0
  9 27  1  0  0  0
M  END
>  <i_m_Spin_multiplicity> (1)
1

>  <s_j_Task> (1)
Single Point

>  <s_j_QM_Method> (1)
DFT(b3lyp-d3)

>  <s_j_QM_Basis> (1)
cc-pvtz(-f)

>  <i_j_Number_of_canonical_orbitals> (1)
365

>  <i_j_Geometry_convergence_category> (1)
0

>  <r_j_Gas_Phase_Energy> (1)
-353.955202225984

>  <r_j_Final_Energy> (1)
-353.955202225984

>  <r_j_HOMO> (1)
-0.304423067198568

>  <r_j_LUMO> (1)
0.0227546295402625

>  <r_j_Polarizability> (1)
106.007349324024

>  <r_j_QM_Dipole_(debye)> (1)
0.0417572649873556

>  <r_j_QM_Dipole_X_(debye)> (1)
-0.0104508907464755

>  <r_j_QM_Dipole_Y_(debye)> (1)
-0.0304317169462712

>  <r_j_QM_Dipole_Z_(debye)> (1)
-0.026615008275999

>  <r_j_Lowest_Frequency_(cm-1)> (1)
106.606948213173

>  <r_j_Highest_Frequency_(cm-1)> (1)
3047.03782475716

>  <r_j_2nd_Lowest_Frequency_(cm-1)> (1)
135.461435726235

>  <i_j_Num_Negative_Frequencies> (1)
0

>  <r_j_Zero_Point_Energy_(kcal/mol)> (1)
158.764417445802

>  <r_j_Entropy_(cal/mol/K)_298.15K_1.00E+00atm> (1)
95.6510938328473

>  <r_j_Enthalpy_(kcal/mol)_298.15K_1.00E+00atm> (1)
6.8318859583996

>  <r_j_Free_Energy_(kcal/mol)_298.15K_1.00E+00atm> (1)
-21.6864876678638

>  <r_j_Internal_Energy_(kcal/mol)_298.15K_1.00E+00atm> (1)
6.23940036957233

>  <r_j_Heat_Capacity_(cal/mol/K)_298.15K_1.00E+00atm> (1)
38.7492546125446

>  <r_j_ln(Q)_298.15K_1.00E+00atm> (1)
36.6025572213302

>  <r_j_Total_Internal_Energy_(au)_298.15K_1.00E+00atm> (1)
-353.692251902995

>  <r_j_Total_Enthalpy_(au)_298.15K_1.00E+00atm> (1)
-353.691307717103

>  <r_j_Total_Free_Energy_(au)_298.15K_1.00E+00atm> (1)
-353.736754638607

>  <r_lp_tautomer_probability> (1)
1

>  <r_epik_Ionization_Penalty> (1)
  0.0000

>  <r_epik_Ionization_Penalty_Charging> (1)
  0.0000

>  <r_epik_Ionization_Penalty_Neutral> (1)
  0.0000

>  <r_epik_State_Penalty> (1)
  0.0000

>  <r_epik_Charging_Adjusted_Penalty> (1)
0

>  <i_epik_Tot_Q> (1)
0

>  <i_epik_Tot_abs_Q> (1)
0

>  <s_lp_Force_Field> (1)
S-OPLS

>  <r_lp_Energy> (1)
7.80063

>  <b_lp_Chiralities_Consistent> (1)
1

$$$$
