3224_Endosulfan
                    3D
 Schrodinger Suite 2021-3.
 25 27  0  0  1  0            999 V2000
   -1.4120    1.9244    0.0987 C   0  0  0  0  0  0
   -0.7422    0.5812   -0.2145 C   0  0  0  0  0  0
    0.8079    0.6060   -0.0278 C   0  0  0  0  0  0
    1.5614    0.9003   -1.3221 C   0  0  0  0  0  0
    1.5185    2.3210   -1.5995 O   0  0  0  0  0  0
    0.0493    3.0721   -1.8843 S   0  0  1  0  0  0
   -0.7781    2.1823   -2.7260 O   0  0  0  0  0  0
   -0.5915    3.0424   -0.3342 O   0  0  0  0  0  0
    1.0918   -0.7688    0.6440 C   0  0  0  0  0  0
    0.6140   -1.8736   -0.3047 C   0  0  0  0  0  0
   -0.7278   -1.8490   -0.3112 C   0  0  0  0  0  0
   -1.1658   -0.6937    0.6029 C   0  0  0  0  0  0
   -0.0673   -0.8241    1.7070 C   0  0  0  0  0  0
   -0.1391   -2.3562    2.6358 Cl  0  0  0  0  0  0
   -0.0483    0.5236    2.8954 Cl  0  0  0  0  0  0
   -2.8521   -0.7177    1.1645 Cl  0  0  0  0  0  0
   -1.8033   -2.7433   -1.2990 Cl  0  0  0  0  0  0
    1.6632   -2.8190   -1.2792 Cl  0  0  0  0  0  0
    2.7456   -0.9324    1.2760 Cl  0  0  0  0  0  0
   -1.5378    2.0902    1.1680 H   0  0  0  0  0  0
   -2.3863    1.9764   -0.3929 H   0  0  0  0  0  0
   -0.9725    0.3583   -1.2561 H   0  0  0  0  0  0
    1.0895    1.3846    0.6833 H   0  0  0  0  0  0
    2.6255    0.6776   -1.2190 H   0  0  0  0  0  0
    1.1570    0.3377   -2.1700 H   0  0  0  0  0  0
  1  8  1  0  0  0
  1  2  1  0  0  0
  1 20  1  0  0  0
  1 21  1  0  0  0
  2 12  1  0  0  0
  2  3  1  0  0  0
  2 22  1  0  0  0
  3  4  1  0  0  0
  3  9  1  0  0  0
  3 23  1  0  0  0
  4  5  1  0  0  0
  4 24  1  0  0  0
  4 25  1  0  0  0
  5  6  1  0  0  0
  6  7  2  0  0  0
  6  8  1  0  0  0
  9 13  1  0  0  0
  9 10  1  0  0  0
  9 19  1  0  0  0
 10 11  2  0  0  0
 10 18  1  0  0  0
 11 12  1  0  0  0
 11 17  1  0  0  0
 12 13  1  0  0  0
 12 16  1  0  0  0
 13 14  1  0  0  0
 13 15  1  0  0  0
M  END
>  <i_m_Spin_multiplicity> (1)
1

>  <s_j_Task> (1)
Single Point

>  <s_j_QM_Method> (1)
DFT(b3lyp-d3)

>  <s_j_QM_Basis> (1)
cc-pvtz(-f)

>  <i_j_Number_of_canonical_orbitals> (1)
513

>  <i_j_Geometry_convergence_category> (1)
3

>  <r_j_Gas_Phase_Energy> (1)
-3731.97449984683

>  <r_j_Final_Energy> (1)
-3731.97449984683

>  <r_j_HOMO> (1)
-0.278571054716388

>  <r_j_LUMO> (1)
-0.0678033503572844

>  <r_j_Polarizability> (1)
189.943702685192

>  <r_j_QM_Dipole_(debye)> (1)
0.229392555301426

>  <r_j_QM_Dipole_X_(debye)> (1)
0.221758074712316

>  <r_j_QM_Dipole_Y_(debye)> (1)
0.0574601406014938

>  <r_j_QM_Dipole_Z_(debye)> (1)
-0.0119429045739024

>  <r_j_Lowest_Frequency_(cm-1)> (1)
62.9602567076653

>  <r_j_Highest_Frequency_(cm-1)> (1)
3106.86665098496

>  <r_j_2nd_Lowest_Frequency_(cm-1)> (1)
83.8482733606265

>  <i_j_Num_Negative_Frequencies> (1)
0

>  <r_j_Zero_Point_Energy_(kcal/mol)> (1)
90.9168853559082

>  <r_j_Entropy_(cal/mol/K)_298.15K_1.00E+00atm> (1)
135.003509091004

>  <r_j_Enthalpy_(kcal/mol)_298.15K_1.00E+00atm> (1)
11.7978808324638

>  <r_j_Free_Energy_(kcal/mol)_298.15K_1.00E+00atm> (1)
-28.453415403019

>  <r_j_Internal_Energy_(kcal/mol)_298.15K_1.00E+00atm> (1)
11.2053952436366

>  <r_j_Heat_Capacity_(cal/mol/K)_298.15K_1.00E+00atm> (1)
66.6869481768103

>  <r_j_ln(Q)_298.15K_1.00E+00atm> (1)
48.0238100969473

>  <r_j_Total_Internal_Energy_(au)_298.15K_1.00E+00atm> (1)
-3731.8117576326

>  <r_j_Total_Enthalpy_(au)_298.15K_1.00E+00atm> (1)
-3731.81081344671

>  <r_j_Total_Free_Energy_(au)_298.15K_1.00E+00atm> (1)
-3731.87495797067

>  <r_lp_tautomer_probability> (1)
1

>  <r_epik_Ionization_Penalty> (1)
  0.0000

>  <r_epik_Ionization_Penalty_Charging> (1)
  0.0000

>  <r_epik_Ionization_Penalty_Neutral> (1)
  0.0000

>  <r_epik_State_Penalty> (1)
  0.0000

>  <r_epik_Charging_Adjusted_Penalty> (1)
0

>  <i_epik_Tot_Q> (1)
0

>  <i_epik_Tot_abs_Q> (1)
0

>  <s_lp_Force_Field> (1)
S-OPLS

>  <r_lp_Energy> (1)
37.92012

>  <b_lp_Chiralities_Consistent> (1)
1

$$$$
