323_Coumarin
                    3D
 Schrodinger Suite 2021-3.
 17 18  0  0  1  0            999 V2000
    5.6903    5.6944    9.5199 C   0  0  0  0  0  0
    4.7129    5.9019   10.5043 C   0  0  0  0  0  0
    3.9002    4.8579   10.9316 C   0  0  0  0  0  0
    4.0693    3.5940   10.3663 C   0  0  0  0  0  0
    5.0438    3.3608    9.3767 C   0  0  0  0  0  0
    5.8522    4.4343    8.9629 C   0  0  0  0  0  0
    5.1470    2.0232    8.8499 C   0  0  0  0  0  0
    4.3336    1.0418    9.2977 C   0  0  0  0  0  0
    3.3240    1.2891   10.3243 C   0  0  0  0  0  0
    2.5590    0.4731   10.7792 O   0  0  0  0  0  0
    3.2524    2.5957   10.8118 O   0  0  0  0  0  0
    6.3179    6.5179    9.1953 H   0  0  0  0  0  0
    4.5860    6.8879   10.9405 H   0  0  0  0  0  0
    3.1385    4.9950   11.6908 H   0  0  0  0  0  0
    6.6055    4.2593    8.1996 H   0  0  0  0  0  0
    5.8925    1.8199    8.0851 H   0  0  0  0  0  0
    4.3803    0.0251    8.9273 H   0  0  0  0  0  0
  1  6  1  0  0  0
  1  2  2  0  0  0
  1 12  1  0  0  0
  2  3  1  0  0  0
  2 13  1  0  0  0
  3  4  2  0  0  0
  3 14  1  0  0  0
  4 11  1  0  0  0
  4  5  1  0  0  0
  5  6  2  0  0  0
  5  7  1  0  0  0
  6 15  1  0  0  0
  7  8  2  0  0  0
  7 16  1  0  0  0
  8  9  1  0  0  0
  8 17  1  0  0  0
  9 10  2  0  0  0
  9 11  1  0  0  0
M  END
>  <i_m_Spin_multiplicity> (1)
1

>  <s_j_Task> (1)
Single Point

>  <s_j_QM_Method> (1)
DFT(b3lyp-d3)

>  <s_j_QM_Basis> (1)
cc-pvtz(-f)

>  <i_j_Number_of_canonical_orbitals> (1)
302

>  <i_j_Geometry_convergence_category> (1)
0

>  <r_j_Gas_Phase_Energy> (1)
-497.194369462672

>  <r_j_Final_Energy> (1)
-497.194369462672

>  <r_j_HOMO> (1)
-0.285944877089147

>  <r_j_LUMO> (1)
-0.118774066154606

>  <r_j_Polarizability> (1)
107.872701043246

>  <r_j_QM_Dipole_(debye)> (1)
4.85003977651595

>  <r_j_QM_Dipole_X_(debye)> (1)
3.24771503430519

>  <r_j_QM_Dipole_Y_(debye)> (1)
2.92187730753474

>  <r_j_QM_Dipole_Z_(debye)> (1)
-2.10662428768125

>  <r_j_Lowest_Frequency_(cm-1)> (1)
117.691450384331

>  <r_j_Highest_Frequency_(cm-1)> (1)
3178.07058663911

>  <r_j_2nd_Lowest_Frequency_(cm-1)> (1)
174.051397048058

>  <i_j_Num_Negative_Frequencies> (1)
0

>  <r_j_Zero_Point_Energy_(kcal/mol)> (1)
79.4731921876561

>  <r_j_Entropy_(cal/mol/K)_298.15K_1.00E+00atm> (1)
86.1352603068162

>  <r_j_Enthalpy_(kcal/mol)_298.15K_1.00E+00atm> (1)
5.32527078333502

>  <r_j_Free_Energy_(kcal/mol)_298.15K_1.00E+00atm> (1)
-20.3559570771422

>  <r_j_Internal_Energy_(kcal/mol)_298.15K_1.00E+00atm> (1)
4.73278519450774

>  <r_j_Heat_Capacity_(cal/mol/K)_298.15K_1.00E+00atm> (1)
30.868872455708

>  <r_j_ln(Q)_298.15K_1.00E+00atm> (1)
34.3568813503691

>  <r_j_Total_Internal_Energy_(au)_298.15K_1.00E+00atm> (1)
-497.060178695189

>  <r_j_Total_Enthalpy_(au)_298.15K_1.00E+00atm> (1)
-497.059234509296

>  <r_j_Total_Free_Energy_(au)_298.15K_1.00E+00atm> (1)
-497.1001601512

>  <r_lp_tautomer_probability> (1)
1

>  <r_epik_Ionization_Penalty> (1)
  0.0000

>  <r_epik_Ionization_Penalty_Charging> (1)
  0.0000

>  <r_epik_Ionization_Penalty_Neutral> (1)
  0.0000

>  <r_epik_State_Penalty> (1)
  0.0000

>  <r_epik_Charging_Adjusted_Penalty> (1)
0

>  <i_epik_Tot_Q> (1)
0

>  <i_epik_Tot_abs_Q> (1)
0

>  <s_lp_Force_Field> (1)
S-OPLS

>  <r_lp_Energy> (1)
21.5526

>  <b_lp_Chiralities_Consistent> (1)
1

$$$$
