3301_Ethylenediamine
                    3D
 Schrodinger Suite 2021-3.
 14 13  0  0  1  0            999 V2000
   -0.0203    0.0065    0.0003 C   0  0  0  0  0  0
    1.5203   -0.0065    0.0002 C   0  0  0  0  0  0
    2.0442   -1.4322   -0.0002 N   0  3  1  0  0  0
   -0.5442    1.4322   -0.0002 N   0  3  1  0  0  0
   -0.4345   -0.4757   -0.8899 H   0  0  0  0  0  0
   -0.4347   -0.4752    0.8906 H   0  0  0  0  0  0
    1.9345    0.4756   -0.8899 H   0  0  0  0  0  0
    1.9347    0.4752    0.8906 H   0  0  0  0  0  0
    3.0762   -1.4300   -0.0006 H   0  0  0  0  0  0
    1.7536   -1.9673   -0.8316 H   0  0  0  0  0  0
   -1.5762    1.4300   -0.0007 H   0  0  0  0  0  0
   -0.2535    1.9673   -0.8316 H   0  0  0  0  0  0
    1.7542   -1.9676    0.8313 H   0  0  0  0  0  0
   -0.2543    1.9676    0.8313 H   0  0  0  0  0  0
  1  2  1  0  0  0
  1  4  1  0  0  0
  1  5  1  0  0  0
  1  6  1  0  0  0
  2  3  1  0  0  0
  2  7  1  0  0  0
  2  8  1  0  0  0
  3  9  1  0  0  0
  3 10  1  0  0  0
  3 13  1  0  0  0
  4 11  1  0  0  0
  4 12  1  0  0  0
  4 14  1  0  0  0
M  END
>  <i_m_Spin_multiplicity> (1)
1

>  <s_j_Task> (1)
Single Point

>  <s_j_QM_Method> (1)
DFT(b3lyp-d3)

>  <s_j_QM_Basis> (1)
cc-pvtz(-f)

>  <i_j_Number_of_canonical_orbitals> (1)
182

>  <i_j_Geometry_convergence_category> (1)
0

>  <r_j_Gas_Phase_Energy> (1)
-191.170947526063

>  <r_j_Final_Energy> (1)
-191.170947526063

>  <r_j_HOMO> (1)
-0.757246094345197

>  <r_j_LUMO> (1)
-0.354688945647948

>  <r_j_Polarizability> (1)
36.2761234718376

>  <r_j_QM_Dipole_(debye)> (1)
0.00118102271650571

>  <r_j_QM_Dipole_X_(debye)> (1)
-2.17606383793192e-05

>  <r_j_QM_Dipole_Y_(debye)> (1)
-9.42488438076126e-06

>  <r_j_QM_Dipole_Z_(debye)> (1)
-0.00118078461332889

>  <r_j_Lowest_Frequency_(cm-1)> (1)
145.877854224442

>  <r_j_Highest_Frequency_(cm-1)> (1)
3382.77319426278

>  <r_j_2nd_Lowest_Frequency_(cm-1)> (1)
282.919627176583

>  <i_j_Num_Negative_Frequencies> (1)
0

>  <r_j_Zero_Point_Energy_(kcal/mol)> (1)
87.8445238445011

>  <r_j_Entropy_(cal/mol/K)_298.15K_1.00E+00atm> (1)
70.6129453807708

>  <r_j_Enthalpy_(kcal/mol)_298.15K_1.00E+00atm> (1)
4.02542881670083

>  <r_j_Free_Energy_(kcal/mol)_298.15K_1.00E+00atm> (1)
-17.027820848576

>  <r_j_Internal_Energy_(kcal/mol)_298.15K_1.00E+00atm> (1)
3.43294322787356

>  <r_j_Heat_Capacity_(cal/mol/K)_298.15K_1.00E+00atm> (1)
18.6850306819943

>  <r_j_ln(Q)_298.15K_1.00E+00atm> (1)
28.7396371653186

>  <r_j_Total_Internal_Energy_(au)_298.15K_1.00E+00atm> (1)
-191.025487622371

>  <r_j_Total_Enthalpy_(au)_298.15K_1.00E+00atm> (1)
-191.024543436478

>  <r_j_Total_Free_Energy_(au)_298.15K_1.00E+00atm> (1)
-191.058093925629

>  <r_epik_Ionization_Penalty> (1)
  0.6794

>  <r_epik_Ionization_Penalty_Charging> (1)
  0.6794

>  <r_epik_Ionization_Penalty_Neutral> (1)
  0.0000

>  <r_epik_State_Penalty> (1)
  0.7003

>  <r_epik_Charging_Adjusted_Penalty> (1)
1.37963

>  <i_epik_Tot_Q> (1)
2

>  <i_epik_Tot_abs_Q> (1)
2

>  <s_lp_Force_Field> (1)
S-OPLS

>  <r_lp_Energy> (1)
14.9273

>  <b_lp_Chiralities_Consistent> (1)
1

$$$$
