33022_Glycerol monooleate
                    3D
 Schrodinger Suite 2021-3.
 65 64  0  0  1  0            999 V2000
   -4.1384   -3.0953    7.3767 C   0  0  0  0  0  0
   -5.3463   -2.8682    6.4628 C   0  0  0  0  0  0
   -4.9548   -2.5273    5.0195 C   0  0  0  0  0  0
   -6.1677   -2.2904    4.1101 C   0  0  0  0  0  0
   -5.8253   -2.0251    2.6359 C   0  0  0  0  0  0
   -5.0226   -0.7399    2.3896 C   0  0  0  0  0  0
   -4.8447   -0.4275    0.8981 C   0  0  0  0  0  0
   -4.0785    0.8817    0.6090 C   0  0  0  0  0  0
   -2.6321    0.8442    1.0258 C   0  0  0  0  0  0
   -1.5953    0.9043    0.1864 C   0  0  0  0  0  0
   -0.1442    0.8177    0.5708 C   0  0  0  0  0  0
    0.5637   -0.3916   -0.0687 C   0  0  0  0  0  0
    2.0643   -0.4499    0.2393 C   0  0  0  0  0  0
    2.7645   -1.6426   -0.4256 C   0  0  0  0  0  0
    4.2608   -1.7725   -0.1041 C   0  0  0  0  0  0
    5.1119   -0.5950   -0.6021 C   0  0  0  0  0  0
    6.6151   -0.8218   -0.4176 C   0  0  0  0  0  0
    7.1687   -1.8846   -1.3477 C   0  0  0  0  0  0
    6.5859   -2.3674   -2.2964 O   0  0  0  0  0  0
    8.4287   -2.2244   -0.9968 O   0  0  0  0  0  0
    9.0742   -3.1937   -1.8434 C   0  0  0  0  0  0
   10.3923   -3.5809   -1.1906 C   0  0  0  0  0  0
   11.2152   -4.4832   -2.1147 C   0  0  0  0  0  0
   11.4823   -3.7703   -3.3153 O   0  0  0  0  0  0
   10.2163   -4.2127    0.0708 O   0  0  0  0  0  0
   -4.4467   -3.3369    8.3993 H   0  0  0  0  0  0
   -3.5046   -2.2021    7.4217 H   0  0  0  0  0  0
   -3.5174   -3.9215    7.0115 H   0  0  0  0  0  0
   -5.9817   -3.7645    6.4629 H   0  0  0  0  0  0
   -5.9669   -2.0575    6.8686 H   0  0  0  0  0  0
   -4.3108   -1.6380    5.0258 H   0  0  0  0  0  0
   -4.3433   -3.3425    4.6056 H   0  0  0  0  0  0
   -6.8280   -3.1665    4.1683 H   0  0  0  0  0  0
   -6.7517   -1.4452    4.5023 H   0  0  0  0  0  0
   -5.2683   -2.8820    2.2306 H   0  0  0  0  0  0
   -6.7602   -1.9732    2.0613 H   0  0  0  0  0  0
   -5.5319    0.1047    2.8770 H   0  0  0  0  0  0
   -4.0397   -0.8219    2.8684 H   0  0  0  0  0  0
   -4.3230   -1.2602    0.4078 H   0  0  0  0  0  0
   -5.8363   -0.3634    0.4296 H   0  0  0  0  0  0
   -4.1390    1.1019   -0.4639 H   0  0  0  0  0  0
   -4.5925    1.7062    1.1256 H   0  0  0  0  0  0
   -2.4337    0.7430    2.0938 H   0  0  0  0  0  0
   -1.7934    1.0013   -0.8837 H   0  0  0  0  0  0
    0.3764    1.7338    0.2527 H   0  0  0  0  0  0
   -0.0458    0.7681    1.6630 H   0  0  0  0  0  0
    0.0761   -1.3139    0.2741 H   0  0  0  0  0  0
    0.4193   -0.3592   -1.1580 H   0  0  0  0  0  0
    2.5298    0.4886   -0.0896 H   0  0  0  0  0  0
    2.2143   -0.4994    1.3278 H   0  0  0  0  0  0
    2.2553   -2.5668   -0.1207 H   0  0  0  0  0  0
    2.6391   -1.5732   -1.5154 H   0  0  0  0  0  0
    4.3956   -1.8827    0.9818 H   0  0  0  0  0  0
    4.6381   -2.6927   -0.5642 H   0  0  0  0  0  0
    4.9102   -0.4289   -1.6668 H   0  0  0  0  0  0
    4.8323    0.3234   -0.0745 H   0  0  0  0  0  0
    7.1812    0.0970   -0.6182 H   0  0  0  0  0  0
    6.8616   -1.1034    0.6127 H   0  0  0  0  0  0
    8.4224   -4.0694   -1.9621 H   0  0  0  0  0  0
    9.2447   -2.7716   -2.8374 H   0  0  0  0  0  0
   10.9664   -2.6702   -0.9906 H   0  0  0  0  0  0
   12.1333   -4.7632   -1.5788 H   0  0  0  0  0  0
   10.6469   -5.4111   -2.3069 H   0  0  0  0  0  0
   12.0077   -4.3338   -3.8962 H   0  0  0  0  0  0
    9.5809   -4.9333   -0.0427 H   0  0  0  0  0  0
  1  2  1  0  0  0
  1 26  1  0  0  0
  1 27  1  0  0  0
  1 28  1  0  0  0
  2  3  1  0  0  0
  2 29  1  0  0  0
  2 30  1  0  0  0
  3  4  1  0  0  0
  3 31  1  0  0  0
  3 32  1  0  0  0
  4  5  1  0  0  0
  4 33  1  0  0  0
  4 34  1  0  0  0
  5  6  1  0  0  0
  5 35  1  0  0  0
  5 36  1  0  0  0
  6  7  1  0  0  0
  6 37  1  0  0  0
  6 38  1  0  0  0
  7  8  1  0  0  0
  7 39  1  0  0  0
  7 40  1  0  0  0
  8  9  1  0  0  0
  8 41  1  0  0  0
  8 42  1  0  0  0
  9 10  2  0  0  0
  9 43  1  0  0  0
 10 11  1  0  0  0
 10 44  1  0  0  0
 11 12  1  0  0  0
 11 45  1  0  0  0
 11 46  1  0  0  0
 12 13  1  0  0  0
 12 47  1  0  0  0
 12 48  1  0  0  0
 13 14  1  0  0  0
 13 49  1  0  0  0
 13 50  1  0  0  0
 14 15  1  0  0  0
 14 51  1  0  0  0
 14 52  1  0  0  0
 15 16  1  0  0  0
 15 53  1  0  0  0
 15 54  1  0  0  0
 16 17  1  0  0  0
 16 55  1  0  0  0
 16 56  1  0  0  0
 17 18  1  0  0  0
 17 57  1  0  0  0
 17 58  1  0  0  0
 18 19  2  0  0  0
 18 20  1  0  0  0
 20 21  1  0  0  0
 21 22  1  0  0  0
 21 59  1  0  0  0
 21 60  1  0  0  0
 22 23  1  0  0  0
 22 25  1  0  0  0
 22 61  1  0  0  0
 23 24  1  0  0  0
 23 62  1  0  0  0
 23 63  1  0  0  0
 24 64  1  0  0  0
 25 65  1  0  0  0
M  END
>  <i_m_Spin_multiplicity> (1)
1

>  <s_j_Task> (1)
Single Point

>  <s_j_QM_Method> (1)
DFT(b3lyp-d3)

>  <s_j_QM_Basis> (1)
cc-pvtz(-f)

>  <i_j_Number_of_canonical_orbitals> (1)
929

>  <i_j_Geometry_convergence_category> (1)
0

>  <r_j_Gas_Phase_Energy> (1)
-1125.67744943629

>  <r_j_Final_Energy> (1)
-1125.67744943629

>  <r_j_HOMO> (1)
-0.245357861898187

>  <r_j_LUMO> (1)
-0.0124423502155932

>  <r_j_Polarizability> (1)
274.73848525093

>  <r_j_QM_Dipole_(debye)> (1)
2.04301025331588

>  <r_j_QM_Dipole_X_(debye)> (1)
1.3043886023454

>  <r_j_QM_Dipole_Y_(debye)> (1)
-1.55934227667141

>  <r_j_QM_Dipole_Z_(debye)> (1)
-0.202269457433474

>  <r_j_Lowest_Frequency_(cm-1)> (1)
15.4512131282288

>  <r_j_Highest_Frequency_(cm-1)> (1)
3782.07494387428

>  <r_j_2nd_Lowest_Frequency_(cm-1)> (1)
24.117258845564

>  <i_j_Num_Negative_Frequencies> (1)
0

>  <r_j_Zero_Point_Energy_(kcal/mol)> (1)
369.323141576497

>  <r_j_Entropy_(cal/mol/K)_298.15K_1.00E+00atm> (1)
183.150035161404

>  <r_j_Enthalpy_(kcal/mol)_298.15K_1.00E+00atm> (1)
18.7443321954248

>  <r_j_Free_Energy_(kcal/mol)_298.15K_1.00E+00atm> (1)
-35.8618507879478

>  <r_j_Internal_Energy_(kcal/mol)_298.15K_1.00E+00atm> (1)
18.1518466065975

>  <r_j_Heat_Capacity_(cal/mol/K)_298.15K_1.00E+00atm> (1)
110.661010001197

>  <r_j_ln(Q)_298.15K_1.00E+00atm> (1)
60.5278026406184

>  <r_j_Total_Internal_Energy_(au)_298.15K_1.00E+00atm> (1)
-1125.05996873407

>  <r_j_Total_Enthalpy_(au)_298.15K_1.00E+00atm> (1)
-1125.05902454818

>  <r_j_Total_Free_Energy_(au)_298.15K_1.00E+00atm> (1)
-1125.14604504045

>  <r_lp_tautomer_probability> (1)
1

>  <r_epik_Ionization_Penalty> (1)
  0.0000

>  <r_epik_Ionization_Penalty_Charging> (1)
  0.0000

>  <r_epik_Ionization_Penalty_Neutral> (1)
  0.0000

>  <r_epik_State_Penalty> (1)
  0.0000

>  <r_epik_Charging_Adjusted_Penalty> (1)
0

>  <i_epik_Tot_Q> (1)
0

>  <i_epik_Tot_abs_Q> (1)
0

>  <s_lp_Force_Field> (1)
S-OPLS

>  <r_lp_Energy> (1)
2.048293

>  <b_lp_Chiralities_Consistent> (1)
1

>  <s_epik_Chemistry_Notes> (1)
This compound has an ester and may undergo hydrolysis at high or low pH.

$$$$
