33044_1,3-Diethyl-4-methylbenzene
                    3D
 Schrodinger Suite 2021-3.
 27 27  0  0  1  0            999 V2000
   -0.5732    1.4442    0.0585 C   0  0  0  0  0  0
   -0.0309    0.0055   -0.0073 C   0  0  0  0  0  0
    1.4819   -0.0358    0.0081 C   0  0  0  0  0  0
    2.2178   -0.0449   -1.1810 C   0  0  0  0  0  0
    3.6166   -0.0300   -1.1999 C   0  0  0  0  0  0
    4.3182   -0.0013    0.0228 C   0  0  0  0  0  0
    3.5834    0.0047    1.2134 C   0  0  0  0  0  0
    2.1903   -0.0115    1.2127 C   0  0  0  0  0  0
    5.8300    0.0020    0.0689 C   0  0  0  0  0  0
    4.3380    0.0036   -2.5326 C   0  0  0  0  0  0
    4.6236    1.4398   -3.0080 C   0  0  0  0  0  0
   -1.6685    1.4576    0.0500 H   0  0  0  0  0  0
   -0.2166    2.0322   -0.7937 H   0  0  0  0  0  0
   -0.2322    1.9450    0.9707 H   0  0  0  0  0  0
   -0.4238   -0.5680    0.8413 H   0  0  0  0  0  0
   -0.4055   -0.4835   -0.9146 H   0  0  0  0  0  0
    1.6834   -0.0696   -2.1297 H   0  0  0  0  0  0
    4.1155    0.0169    2.1619 H   0  0  0  0  0  0
    1.6493   -0.0091    2.1562 H   0  0  0  0  0  0
    6.1905    0.0827    1.0980 H   0  0  0  0  0  0
    6.2570    0.8359   -0.4988 H   0  0  0  0  0  0
    6.2485   -0.9184   -0.3559 H   0  0  0  0  0  0
    5.2795   -0.5537   -2.4739 H   0  0  0  0  0  0
    3.7270   -0.5062   -3.2867 H   0  0  0  0  0  0
    5.1466    1.4422   -3.9704 H   0  0  0  0  0  0
    5.2414    1.9820   -2.2851 H   0  0  0  0  0  0
    3.6894    1.9986   -3.1245 H   0  0  0  0  0  0
  1  2  1  0  0  0
  1 12  1  0  0  0
  1 13  1  0  0  0
  1 14  1  0  0  0
  2  3  1  0  0  0
  2 15  1  0  0  0
  2 16  1  0  0  0
  3  8  1  0  0  0
  3  4  2  0  0  0
  4  5  1  0  0  0
  4 17  1  0  0  0
  5  6  2  0  0  0
  5 10  1  0  0  0
  6  7  1  0  0  0
  6  9  1  0  0  0
  7  8  2  0  0  0
  7 18  1  0  0  0
  8 19  1  0  0  0
  9 20  1  0  0  0
  9 21  1  0  0  0
  9 22  1  0  0  0
 10 11  1  0  0  0
 10 23  1  0  0  0
 10 24  1  0  0  0
 11 25  1  0  0  0
 11 26  1  0  0  0
 11 27  1  0  0  0
M  END
>  <i_m_Spin_multiplicity> (1)
1

>  <s_j_Task> (1)
Single Point

>  <s_j_QM_Method> (1)
DFT(b3lyp-d3)

>  <s_j_QM_Basis> (1)
cc-pvtz(-f)

>  <i_j_Number_of_canonical_orbitals> (1)
389

>  <i_j_Geometry_convergence_category> (1)
3

>  <r_j_Gas_Phase_Energy> (1)
-428.986064147918

>  <r_j_Final_Energy> (1)
-428.986064147918

>  <r_j_HOMO> (1)
-0.228289393067505

>  <r_j_LUMO> (1)
-0.00493372765373722

>  <r_j_Polarizability> (1)
129.232916096754

>  <r_j_QM_Dipole_(debye)> (1)
0.340941332838935

>  <r_j_QM_Dipole_X_(debye)> (1)
0.186126006048268

>  <r_j_QM_Dipole_Y_(debye)> (1)
0.0529711894917529

>  <r_j_QM_Dipole_Z_(debye)> (1)
-0.280699403979308

>  <r_j_Lowest_Frequency_(cm-1)> (1)
77.4245551447233

>  <r_j_Highest_Frequency_(cm-1)> (1)
3123.29107752144

>  <r_j_2nd_Lowest_Frequency_(cm-1)> (1)
103.970778782519

>  <i_j_Num_Negative_Frequencies> (1)
0

>  <r_j_Zero_Point_Energy_(kcal/mol)> (1)
150.704311352229

>  <r_j_Entropy_(cal/mol/K)_298.15K_1.00E+00atm> (1)
101.297278819698

>  <r_j_Enthalpy_(kcal/mol)_298.15K_1.00E+00atm> (1)
7.57115221804873

>  <r_j_Free_Energy_(kcal/mol)_298.15K_1.00E+00atm> (1)
-22.6306314620442

>  <r_j_Internal_Energy_(kcal/mol)_298.15K_1.00E+00atm> (1)
6.97866662922146

>  <r_j_Heat_Capacity_(cal/mol/K)_298.15K_1.00E+00atm> (1)
43.7115443301531

>  <r_j_ln(Q)_298.15K_1.00E+00atm> (1)
38.1960876159668

>  <r_j_Total_Internal_Energy_(au)_298.15K_1.00E+00atm> (1)
-428.734780325888

>  <r_j_Total_Enthalpy_(au)_298.15K_1.00E+00atm> (1)
-428.733836139996

>  <r_j_Total_Free_Energy_(au)_298.15K_1.00E+00atm> (1)
-428.781965746199

>  <r_lp_tautomer_probability> (1)
1

>  <r_epik_Ionization_Penalty> (1)
  0.0000

>  <r_epik_Ionization_Penalty_Charging> (1)
  0.0000

>  <r_epik_Ionization_Penalty_Neutral> (1)
  0.0000

>  <r_epik_State_Penalty> (1)
  0.0000

>  <r_epik_Charging_Adjusted_Penalty> (1)
0

>  <i_epik_Tot_Q> (1)
0

>  <i_epik_Tot_abs_Q> (1)
0

>  <s_lp_Force_Field> (1)
S-OPLS

>  <r_lp_Energy> (1)
9.173397

>  <b_lp_Chiralities_Consistent> (1)
1

$$$$
