33045_1,3-diethyl-2-methyl benzene
                    3D
 Schrodinger Suite 2021-3.
 27 27  0  0  1  0            999 V2000
   -0.5714    1.5126    0.1013 C   0  0  0  0  0  0
   -0.0393    0.0815   -0.0900 C   0  0  0  0  0  0
    1.4761    0.0108   -0.0359 C   0  0  0  0  0  0
    2.1944    0.0136    1.1769 C   0  0  0  0  0  0
    3.6106   -0.0130    1.1552 C   0  0  0  0  0  0
    4.2776   -0.0341   -0.0725 C   0  0  0  0  0  0
    3.5678   -0.0323   -1.2716 C   0  0  0  0  0  0
    2.1796   -0.0109   -1.2479 C   0  0  0  0  0  0
    4.3770   -0.0141    2.4689 C   0  0  0  0  0  0
    5.9044   -0.0315    2.3694 C   0  0  0  0  0  0
    1.4886    0.0476    2.5164 C   0  0  0  0  0  0
   -1.6647    1.5415    0.0402 H   0  0  0  0  0  0
   -0.1677    2.1769   -0.6697 H   0  0  0  0  0  0
   -0.2740    1.9196    1.0730 H   0  0  0  0  0  0
   -0.4886   -0.5818    0.6576 H   0  0  0  0  0  0
   -0.3752   -0.2953   -1.0628 H   0  0  0  0  0  0
    5.3615   -0.0531   -0.1021 H   0  0  0  0  0  0
    4.0993   -0.0507   -2.2191 H   0  0  0  0  0  0
    1.6223   -0.0119   -2.1817 H   0  0  0  0  0  0
    4.0727    0.8630    3.0572 H   0  0  0  0  0  0
    4.0546   -0.8783    3.0667 H   0  0  0  0  0  0
    6.3483   -0.0306    3.3697 H   0  0  0  0  0  0
    6.2845    0.8465    1.8366 H   0  0  0  0  0  0
    6.2650   -0.9237    1.8470 H   0  0  0  0  0  0
    1.7489    0.9524    3.0794 H   0  0  0  0  0  0
    1.7804   -0.8029    3.1438 H   0  0  0  0  0  0
    0.4035    0.0259    2.4233 H   0  0  0  0  0  0
  1  2  1  0  0  0
  1 12  1  0  0  0
  1 13  1  0  0  0
  1 14  1  0  0  0
  2  3  1  0  0  0
  2 15  1  0  0  0
  2 16  1  0  0  0
  3  8  1  0  0  0
  3  4  2  0  0  0
  4  5  1  0  0  0
  4 11  1  0  0  0
  5  6  2  0  0  0
  5  9  1  0  0  0
  6  7  1  0  0  0
  6 17  1  0  0  0
  7  8  2  0  0  0
  7 18  1  0  0  0
  8 19  1  0  0  0
  9 10  1  0  0  0
  9 20  1  0  0  0
  9 21  1  0  0  0
 10 22  1  0  0  0
 10 23  1  0  0  0
 10 24  1  0  0  0
 11 25  1  0  0  0
 11 26  1  0  0  0
 11 27  1  0  0  0
M  END
>  <i_m_Spin_multiplicity> (1)
1

>  <s_j_Task> (1)
Single Point

>  <s_j_QM_Method> (1)
DFT(b3lyp-d3)

>  <s_j_QM_Basis> (1)
cc-pvtz(-f)

>  <i_j_Number_of_canonical_orbitals> (1)
389

>  <i_j_Geometry_convergence_category> (1)
0

>  <r_j_Gas_Phase_Energy> (1)
-428.982016579835

>  <r_j_Final_Energy> (1)
-428.982016579835

>  <r_j_HOMO> (1)
-0.236680768649884

>  <r_j_LUMO> (1)
-0.0068252927446964

>  <r_j_Polarizability> (1)
127.645672936397

>  <r_j_QM_Dipole_(debye)> (1)
0.724694003808887

>  <r_j_QM_Dipole_X_(debye)> (1)
-0.23036752776456

>  <r_j_QM_Dipole_Y_(debye)> (1)
0.0442054660776201

>  <r_j_QM_Dipole_Z_(debye)> (1)
0.685680740634488

>  <r_j_Lowest_Frequency_(cm-1)> (1)
84.2124482405572

>  <r_j_Highest_Frequency_(cm-1)> (1)
3153.07960283107

>  <r_j_2nd_Lowest_Frequency_(cm-1)> (1)
120.374277545113

>  <i_j_Num_Negative_Frequencies> (1)
0

>  <r_j_Zero_Point_Energy_(kcal/mol)> (1)
150.965908851094

>  <r_j_Entropy_(cal/mol/K)_298.15K_1.00E+00atm> (1)
99.771573545187

>  <r_j_Enthalpy_(kcal/mol)_298.15K_1.00E+00atm> (1)
7.43511887670493

>  <r_j_Free_Energy_(kcal/mol)_298.15K_1.00E+00atm> (1)
-22.3117757757926

>  <r_j_Internal_Energy_(kcal/mol)_298.15K_1.00E+00atm> (1)
6.84263328787765

>  <r_j_Heat_Capacity_(cal/mol/K)_298.15K_1.00E+00atm> (1)
43.523515565488

>  <r_j_ln(Q)_298.15K_1.00E+00atm> (1)
37.6579214693727

>  <r_j_Total_Internal_Energy_(au)_298.15K_1.00E+00atm> (1)
-428.730532658582

>  <r_j_Total_Enthalpy_(au)_298.15K_1.00E+00atm> (1)
-428.72958847269

>  <r_j_Total_Free_Energy_(au)_298.15K_1.00E+00atm> (1)
-428.776993167081

>  <r_lp_tautomer_probability> (1)
1

>  <r_epik_Ionization_Penalty> (1)
  0.0000

>  <r_epik_Ionization_Penalty_Charging> (1)
  0.0000

>  <r_epik_Ionization_Penalty_Neutral> (1)
  0.0000

>  <r_epik_State_Penalty> (1)
  0.0000

>  <r_epik_Charging_Adjusted_Penalty> (1)
0

>  <i_epik_Tot_Q> (1)
0

>  <i_epik_Tot_abs_Q> (1)
0

>  <s_lp_Force_Field> (1)
S-OPLS

>  <r_lp_Energy> (1)
12.4348

>  <b_lp_Chiralities_Consistent> (1)
1

$$$$
