33344_5-Chloro-2-methyl-4-isothiazolin-3-one
                    3D
 Schrodinger Suite 2021-3.
 12 12  0  0  1  0            999 V2000
    0.0051   -0.0261    0.0000 C   0  0  0  0  0  0
    1.4580    0.0003    0.0000 N   0  0  0  0  0  0
    2.2066    1.1836    0.0000 C   0  0  0  0  0  0
    1.7019    2.2979    0.0000 O   0  0  0  0  0  0
    3.6336    0.8290    0.0000 C   0  0  0  0  0  0
    3.8504   -0.4984    0.0000 C   0  0  0  0  0  0
    2.3795   -1.4582   -0.0001 S   0  0  0  0  0  0
    5.3747   -1.3156    0.0001 Cl  0  0  0  0  0  0
   -0.3143    1.0179    0.0000 H   0  0  0  0  0  0
   -0.3823   -0.5243    0.8946 H   0  0  0  0  0  0
   -0.3823   -0.5243   -0.8945 H   0  0  0  0  0  0
    4.4034    1.5872    0.0000 H   0  0  0  0  0  0
  1  2  1  0  0  0
  1  9  1  0  0  0
  1 10  1  0  0  0
  1 11  1  0  0  0
  2  7  1  0  0  0
  2  3  1  0  0  0
  3  4  2  0  0  0
  3  5  1  0  0  0
  5  6  2  0  0  0
  5 12  1  0  0  0
  6  7  1  0  0  0
  6  8  1  0  0  0
M  END
>  <i_m_Spin_multiplicity> (1)
1

>  <s_j_Task> (1)
Single Point

>  <s_j_QM_Method> (1)
DFT(b3lyp-d3)

>  <s_j_QM_Basis> (1)
cc-pvtz(-f)

>  <i_j_Number_of_canonical_orbitals> (1)
227

>  <i_j_Geometry_convergence_category> (1)
0

>  <r_j_Gas_Phase_Energy> (1)
-1143.34202126909

>  <r_j_Final_Energy> (1)
-1143.34202126909

>  <r_j_HOMO> (1)
-0.238106218836308

>  <r_j_LUMO> (1)
-0.055331979736291

>  <r_j_Polarizability> (1)
85.6062345047704

>  <r_j_QM_Dipole_(debye)> (1)
2.82743983425973

>  <r_j_QM_Dipole_X_(debye)> (1)
-0.289936235438943

>  <r_j_QM_Dipole_Y_(debye)> (1)
-2.81253497659133

>  <r_j_QM_Dipole_Z_(debye)> (1)
-3.44754045359244e-05

>  <r_j_Lowest_Frequency_(cm-1)> (1)
95.1849602667325

>  <r_j_Highest_Frequency_(cm-1)> (1)
3207.10523537279

>  <r_j_2nd_Lowest_Frequency_(cm-1)> (1)
185.629136325401

>  <i_j_Num_Negative_Frequencies> (1)
0

>  <r_j_Zero_Point_Energy_(kcal/mol)> (1)
48.6886244494578

>  <r_j_Entropy_(cal/mol/K)_298.15K_1.00E+00atm> (1)
87.8580840297163

>  <r_j_Enthalpy_(kcal/mol)_298.15K_1.00E+00atm> (1)
5.46152713031917

>  <r_j_Free_Energy_(kcal/mol)_298.15K_1.00E+00atm> (1)
-20.7333606231408

>  <r_j_Internal_Energy_(kcal/mol)_298.15K_1.00E+00atm> (1)
4.8690415414919

>  <r_j_Heat_Capacity_(cal/mol/K)_298.15K_1.00E+00atm> (1)
27.4402399480225

>  <r_j_ln(Q)_298.15K_1.00E+00atm> (1)
34.9938648536228

>  <r_j_Total_Internal_Energy_(au)_298.15K_1.00E+00atm> (1)
-1143.25667169502

>  <r_j_Total_Enthalpy_(au)_298.15K_1.00E+00atm> (1)
-1143.25572750913

>  <r_j_Total_Free_Energy_(au)_298.15K_1.00E+00atm> (1)
-1143.29747172018

>  <r_lp_tautomer_probability> (1)
1

>  <r_epik_Ionization_Penalty> (1)
  0.0000

>  <r_epik_Ionization_Penalty_Charging> (1)
  0.0000

>  <r_epik_Ionization_Penalty_Neutral> (1)
  0.0000

>  <r_epik_State_Penalty> (1)
  0.0000

>  <r_epik_Charging_Adjusted_Penalty> (1)
2.0506e-07

>  <i_epik_Tot_Q> (1)
0

>  <i_epik_Tot_abs_Q> (1)
0

>  <s_lp_Force_Field> (1)
S-OPLS

>  <r_lp_Energy> (1)
0.264863

>  <b_lp_Chiralities_Consistent> (1)
1

$$$$
