33451_2,5-Dimethyl-1-hexene
                    3D
 Schrodinger Suite 2021-3.
 24 23  0  0  1  0            999 V2000
   -0.7406   -0.7409   -1.1352 C   0  0  0  0  0  0
   -0.0193    0.0680   -0.0472 C   0  0  0  0  0  0
   -0.4627    1.5373   -0.0883 C   0  0  0  0  0  0
    1.5132   -0.0313   -0.1628 C   0  0  0  0  0  0
    2.0766   -1.4543    0.0233 C   0  0  0  0  0  0
    3.5888   -1.5029    0.0634 C   0  0  0  0  0  0
    4.2517   -1.8392    1.1746 C   0  0  0  0  0  0
    4.3061   -1.1504   -1.2171 C   0  0  0  0  0  0
   -0.4503   -0.3895   -2.1334 H   0  0  0  0  0  0
   -1.8270   -0.6323   -1.0483 H   0  0  0  0  0  0
   -0.5107   -1.8090   -1.0768 H   0  0  0  0  0  0
   -0.3072   -0.3457    0.9312 H   0  0  0  0  0  0
   -0.1971    1.9963   -1.0488 H   0  0  0  0  0  0
    0.0168    2.1224    0.7038 H   0  0  0  0  0  0
   -1.5473    1.6292    0.0341 H   0  0  0  0  0  0
    1.8182    0.3677   -1.1401 H   0  0  0  0  0  0
    1.9704    0.6212    0.5925 H   0  0  0  0  0  0
    1.6709   -1.8777    0.9504 H   0  0  0  0  0  0
    1.7231   -2.0949   -0.7962 H   0  0  0  0  0  0
    3.7312   -2.0944    2.0937 H   0  0  0  0  0  0
    5.3374   -1.8707    1.2056 H   0  0  0  0  0  0
    3.9647   -1.7880   -2.0429 H   0  0  0  0  0  0
    5.3891   -1.2654   -1.1212 H   0  0  0  0  0  0
    4.1023   -0.1156   -1.5177 H   0  0  0  0  0  0
  1  2  1  0  0  0
  1  9  1  0  0  0
  1 10  1  0  0  0
  1 11  1  0  0  0
  2  3  1  0  0  0
  2  4  1  0  0  0
  2 12  1  0  0  0
  3 13  1  0  0  0
  3 14  1  0  0  0
  3 15  1  0  0  0
  4  5  1  0  0  0
  4 16  1  0  0  0
  4 17  1  0  0  0
  5  6  1  0  0  0
  5 18  1  0  0  0
  5 19  1  0  0  0
  6  7  2  0  0  0
  6  8  1  0  0  0
  7 20  1  0  0  0
  7 21  1  0  0  0
  8 22  1  0  0  0
  8 23  1  0  0  0
  8 24  1  0  0  0
M  END
>  <i_m_Spin_multiplicity> (1)
1

>  <s_j_Task> (1)
Single Point

>  <s_j_QM_Method> (1)
DFT(b3lyp-d3)

>  <s_j_QM_Basis> (1)
cc-pvtz(-f)

>  <i_j_Number_of_canonical_orbitals> (1)
325

>  <i_j_Geometry_convergence_category> (1)
0

>  <r_j_Gas_Phase_Energy> (1)
-314.608306840008

>  <r_j_Final_Energy> (1)
-314.608306840008

>  <r_j_HOMO> (1)
-0.255957082189314

>  <r_j_LUMO> (1)
0.00370967199513932

>  <r_j_Polarizability> (1)
98.3113671476426

>  <r_j_QM_Dipole_(debye)> (1)
0.522516199491622

>  <r_j_QM_Dipole_X_(debye)> (1)
-0.344536150767492

>  <r_j_QM_Dipole_Y_(debye)> (1)
0.170751589648636

>  <r_j_QM_Dipole_Z_(debye)> (1)
-0.353782297717045

>  <r_j_Lowest_Frequency_(cm-1)> (1)
78.6281696761366

>  <r_j_Highest_Frequency_(cm-1)> (1)
3165.6456238182

>  <r_j_2nd_Lowest_Frequency_(cm-1)> (1)
102.736941678884

>  <i_j_Num_Negative_Frequencies> (1)
0

>  <r_j_Zero_Point_Energy_(kcal/mol)> (1)
138.919626116914

>  <r_j_Entropy_(cal/mol/K)_298.15K_1.00E+00atm> (1)
94.4114212312359

>  <r_j_Enthalpy_(kcal/mol)_298.15K_1.00E+00atm> (1)
6.73327982349056

>  <r_j_Free_Energy_(kcal/mol)_298.15K_1.00E+00atm> (1)
-21.4154854166024

>  <r_j_Internal_Energy_(kcal/mol)_298.15K_1.00E+00atm> (1)
6.14079423466329

>  <r_j_Heat_Capacity_(cal/mol/K)_298.15K_1.00E+00atm> (1)
37.3181262659546

>  <r_j_ln(Q)_298.15K_1.00E+00atm> (1)
36.145158330333

>  <r_j_Total_Internal_Energy_(au)_298.15K_1.00E+00atm> (1)
-314.377138344094

>  <r_j_Total_Enthalpy_(au)_298.15K_1.00E+00atm> (1)
-314.376194158202

>  <r_j_Total_Free_Energy_(au)_298.15K_1.00E+00atm> (1)
-314.421052071247

>  <r_lp_tautomer_probability> (1)
1

>  <r_epik_Ionization_Penalty> (1)
  0.0000

>  <r_epik_Ionization_Penalty_Charging> (1)
  0.0000

>  <r_epik_Ionization_Penalty_Neutral> (1)
  0.0000

>  <r_epik_State_Penalty> (1)
  0.0000

>  <r_epik_Charging_Adjusted_Penalty> (1)
0

>  <i_epik_Tot_Q> (1)
0

>  <i_epik_Tot_abs_Q> (1)
0

>  <s_lp_Force_Field> (1)
S-OPLS

>  <r_lp_Energy> (1)
-1.354689

>  <b_lp_Chiralities_Consistent> (1)
1

$$$$
