337121_1,6-Heptadiyne
                    3D
 Schrodinger Suite 2021-3.
 15 14  0  0  1  0            999 V2000
   -0.9747    2.5500    0.0035 C   0  0  0  0  0  0
   -0.5598    1.4160    0.0006 C   0  0  0  0  0  0
   -0.0180    0.0580   -0.0017 C   0  0  0  0  0  0
    1.5235    0.0332   -0.0065 C   0  0  0  0  0  0
    2.0607   -1.4118   -0.0017 C   0  0  0  0  0  0
    3.5216   -1.4700    0.0014 C   0  0  0  0  0  0
    4.7290   -1.4832    0.0049 C   0  0  0  0  0  0
   -1.3462    3.5480    0.0063 H   0  0  0  0  0  0
   -0.3908   -0.4842    0.8780 H   0  0  0  0  0  0
   -0.3968   -0.4844   -0.8786 H   0  0  0  0  0  0
    1.8978    0.5625   -0.8885 H   0  0  0  0  0  0
    1.9027    0.5695    0.8688 H   0  0  0  0  0  0
    1.6734   -1.9442    0.8778 H   0  0  0  0  0  0
    1.6760   -1.9498   -0.8789 H   0  0  0  0  0  0
    5.7938   -1.5006    0.0084 H   0  0  0  0  0  0
  1  2  3  0  0  0
  1  8  1  0  0  0
  2  3  1  0  0  0
  3  4  1  0  0  0
  3  9  1  0  0  0
  3 10  1  0  0  0
  4  5  1  0  0  0
  4 11  1  0  0  0
  4 12  1  0  0  0
  5  6  1  0  0  0
  5 13  1  0  0  0
  5 14  1  0  0  0
  6  7  3  0  0  0
  7 15  1  0  0  0
M  END
>  <i_m_Spin_multiplicity> (1)
1

>  <s_j_Task> (1)
Single Point

>  <s_j_QM_Method> (1)
DFT(b3lyp-d3)

>  <s_j_QM_Basis> (1)
cc-pvtz(-f)

>  <i_j_Number_of_canonical_orbitals> (1)
229

>  <i_j_Geometry_convergence_category> (1)
3

>  <r_j_Gas_Phase_Energy> (1)
-271.523558100892

>  <r_j_Final_Energy> (1)
-271.523558100892

>  <r_j_HOMO> (1)
-0.266423725745475

>  <r_j_LUMO> (1)
0.0109620384621576

>  <r_j_Polarizability> (1)
77.2899230952346

>  <r_j_QM_Dipole_(debye)> (1)
0.570557180992092

>  <r_j_QM_Dipole_X_(debye)> (1)
-0.330452423436292

>  <r_j_QM_Dipole_Y_(debye)> (1)
-0.465119651441375

>  <r_j_QM_Dipole_Z_(debye)> (1)
-0.000634405058750919

>  <r_j_Lowest_Frequency_(cm-1)> (1)
130.904001337472

>  <r_j_Highest_Frequency_(cm-1)> (1)
3425.35218167864

>  <r_j_2nd_Lowest_Frequency_(cm-1)> (1)
134.82203864209

>  <i_j_Num_Negative_Frequencies> (1)
0

>  <r_j_Zero_Point_Energy_(kcal/mol)> (1)
76.9048385964526

>  <r_j_Entropy_(cal/mol/K)_298.15K_1.00E+00atm> (1)
84.6476620729969

>  <r_j_Enthalpy_(kcal/mol)_298.15K_1.00E+00atm> (1)
5.41304710738845

>  <r_j_Free_Energy_(kcal/mol)_298.15K_1.00E+00atm> (1)
-19.8246533396756

>  <r_j_Internal_Energy_(kcal/mol)_298.15K_1.00E+00atm> (1)
4.82056151856117

>  <r_j_Heat_Capacity_(cal/mol/K)_298.15K_1.00E+00atm> (1)
28.1523838482529

>  <r_j_ln(Q)_298.15K_1.00E+00atm> (1)
33.4601443706254

>  <r_j_Total_Internal_Energy_(au)_298.15K_1.00E+00atm> (1)
-271.393320384934

>  <r_j_Total_Enthalpy_(au)_298.15K_1.00E+00atm> (1)
-271.392376199042

>  <r_j_Total_Free_Energy_(au)_298.15K_1.00E+00atm> (1)
-271.432595035017

>  <r_lp_tautomer_probability> (1)
1

>  <r_epik_Ionization_Penalty> (1)
  0.0000

>  <r_epik_Ionization_Penalty_Charging> (1)
  0.0000

>  <r_epik_Ionization_Penalty_Neutral> (1)
  0.0000

>  <r_epik_State_Penalty> (1)
  0.0000

>  <r_epik_Charging_Adjusted_Penalty> (1)
0

>  <i_epik_Tot_Q> (1)
0

>  <i_epik_Tot_abs_Q> (1)
0

>  <s_lp_Force_Field> (1)
S-OPLS

>  <r_lp_Energy> (1)
0.335955

>  <b_lp_Chiralities_Consistent> (1)
1

$$$$
