34192_Thiobencarb
                    3D
 Schrodinger Suite 2021-3.
 32 32  0  0  1  0            999 V2000
   -2.7056    1.1295    1.1630 C   0  0  0  0  0  0
   -1.9656    1.5425   -0.1118 C   0  0  0  0  0  0
   -0.5039    1.3872   -0.0242 N   0  0  0  0  0  0
    0.3280    2.5552    0.2720 C   0  0  0  0  0  0
    0.4551    2.8669    1.7662 C   0  0  0  0  0  0
   -0.0243    0.1121   -0.0936 C   0  0  0  0  0  0
   -0.7294   -0.8680   -0.2885 O   0  0  0  0  0  0
    1.7830   -0.0711    0.1166 S   0  0  0  0  0  0
    1.8636   -1.9003   -0.1426 C   0  0  0  0  0  0
    3.3066   -2.3273   -0.1074 C   0  0  0  0  0  0
    4.0823   -2.3141   -1.2729 C   0  0  0  0  0  0
    5.4257   -2.6819   -1.2480 C   0  0  0  0  0  0
    6.0001   -3.0640   -0.0370 C   0  0  0  0  0  0
    5.2538   -3.0831    1.1395 C   0  0  0  0  0  0
    3.9111   -2.7121    1.0950 C   0  0  0  0  0  0
    7.6973   -3.5300    0.0069 Cl  0  0  0  0  0  0
   -3.7855    1.2497    1.0265 H   0  0  0  0  0  0
   -2.3999    1.7358    2.0204 H   0  0  0  0  0  0
   -2.5014    0.0796    1.3832 H   0  0  0  0  0  0
   -2.3153    0.9341   -0.9503 H   0  0  0  0  0  0
   -2.1626    2.5915   -0.3531 H   0  0  0  0  0  0
    1.3184    2.3991   -0.1660 H   0  0  0  0  0  0
   -0.1067    3.4084   -0.2596 H   0  0  0  0  0  0
    1.1205    3.7229    1.9188 H   0  0  0  0  0  0
    0.8709    2.0083    2.3003 H   0  0  0  0  0  0
   -0.5167    3.1105    2.2048 H   0  0  0  0  0  0
    1.2701   -2.3757    0.6399 H   0  0  0  0  0  0
    1.3891   -2.1170   -1.1007 H   0  0  0  0  0  0
    3.6305   -2.0089   -2.2127 H   0  0  0  0  0  0
    6.0224   -2.6734   -2.1532 H   0  0  0  0  0  0
    5.7181   -3.3836    2.0721 H   0  0  0  0  0  0
    3.3256   -2.7206    2.0103 H   0  0  0  0  0  0
  1  2  1  0  0  0
  1 17  1  0  0  0
  1 18  1  0  0  0
  1 19  1  0  0  0
  2  3  1  0  0  0
  2 20  1  0  0  0
  2 21  1  0  0  0
  3  4  1  0  0  0
  3  6  1  0  0  0
  4  5  1  0  0  0
  4 22  1  0  0  0
  4 23  1  0  0  0
  5 24  1  0  0  0
  5 25  1  0  0  0
  5 26  1  0  0  0
  6  7  2  0  0  0
  6  8  1  0  0  0
  8  9  1  0  0  0
  9 10  1  0  0  0
  9 27  1  0  0  0
  9 28  1  0  0  0
 10 15  1  0  0  0
 10 11  2  0  0  0
 11 12  1  0  0  0
 11 29  1  0  0  0
 12 13  2  0  0  0
 12 30  1  0  0  0
 13 14  1  0  0  0
 13 16  1  0  0  0
 14 15  2  0  0  0
 14 31  1  0  0  0
 15 32  1  0  0  0
M  END
>  <i_m_Spin_multiplicity> (1)
1

>  <s_j_Task> (1)
Single Point

>  <s_j_QM_Method> (1)
DFT(b3lyp-d3)

>  <s_j_QM_Basis> (1)
cc-pvtz(-f)

>  <i_j_Number_of_canonical_orbitals> (1)
515

>  <i_j_Geometry_convergence_category> (1)
1

>  <r_j_Gas_Phase_Energy> (1)
-1455.59400650845

>  <r_j_Final_Energy> (1)
-1455.59400650845

>  <r_j_HOMO> (1)
-0.244032048028659

>  <r_j_LUMO> (1)
-0.0445873812997739

>  <r_j_Polarizability> (1)
190.394962433919

>  <r_j_QM_Dipole_(debye)> (1)
3.28062580199173

>  <r_j_QM_Dipole_X_(debye)> (1)
-1.58888288103294

>  <r_j_QM_Dipole_Y_(debye)> (1)
2.84037984932382

>  <r_j_QM_Dipole_Z_(debye)> (1)
0.412552002309459

>  <r_j_Lowest_Frequency_(cm-1)> (1)
39.2641685916904

>  <r_j_Highest_Frequency_(cm-1)> (1)
3161.92174944007

>  <r_j_2nd_Lowest_Frequency_(cm-1)> (1)
46.4641113169175

>  <i_j_Num_Negative_Frequencies> (1)
0

>  <r_j_Zero_Point_Energy_(kcal/mol)> (1)
163.387944008488

>  <r_j_Entropy_(cal/mol/K)_298.15K_1.00E+00atm> (1)
127.602930599809

>  <r_j_Enthalpy_(kcal/mol)_298.15K_1.00E+00atm> (1)
10.7730000061316

>  <r_j_Free_Energy_(kcal/mol)_298.15K_1.00E+00atm> (1)
-27.2718137522013

>  <r_j_Internal_Energy_(kcal/mol)_298.15K_1.00E+00atm> (1)
10.1805144173043

>  <r_j_Heat_Capacity_(cal/mol/K)_298.15K_1.00E+00atm> (1)
61.7280254168956

>  <r_j_ln(Q)_298.15K_1.00E+00atm> (1)
46.0294972003982

>  <r_j_Total_Internal_Energy_(au)_298.15K_1.00E+00atm> (1)
-1455.31740756178

>  <r_j_Total_Enthalpy_(au)_298.15K_1.00E+00atm> (1)
-1455.31646337589

>  <r_j_Total_Free_Energy_(au)_298.15K_1.00E+00atm> (1)
-1455.37709164618

>  <r_lp_tautomer_probability> (1)
1

>  <r_epik_Ionization_Penalty> (1)
  0.0000

>  <r_epik_Ionization_Penalty_Charging> (1)
  0.0000

>  <r_epik_Ionization_Penalty_Neutral> (1)
  0.0000

>  <r_epik_State_Penalty> (1)
  0.0000

>  <r_epik_Charging_Adjusted_Penalty> (1)
0

>  <i_epik_Tot_Q> (1)
0

>  <i_epik_Tot_abs_Q> (1)
0

>  <s_lp_Force_Field> (1)
S-OPLS

>  <r_lp_Energy> (1)
15.890897

>  <b_lp_Chiralities_Consistent> (1)
1

$$$$
