34193_Methyldecalins
                    3D
 Schrodinger Suite 2021-3.
 31 32  0  0  1  0            999 V2000
   -0.0441   -0.0565   -0.0363 C   0  0  0  0  0  0
    1.4887    0.0009    0.0043 C   0  0  0  0  0  0
    2.0315    0.6797   -1.2687 C   0  0  0  0  0  0
    3.5630    0.7522   -1.2901 C   0  0  0  0  0  0
    4.0933    1.4624   -0.0365 C   0  0  0  0  0  0
    3.5749    0.8257    1.2658 C   0  0  0  0  0  0
    2.0237    0.7300    1.2658 C   0  0  0  0  0  0
    1.5472    0.1228    2.6028 C   0  0  0  0  0  0
    2.1855   -1.2440    2.8940 C   0  0  0  0  0  0
    3.7182   -1.1441    2.8811 C   0  0  0  0  0  0
    4.2287   -0.5400    1.5641 C   0  0  0  0  0  0
   -0.4743    0.9498    0.0423 H   0  0  0  0  0  0
   -0.4592   -0.6613    0.7747 H   0  0  0  0  0  0
   -0.3902   -0.4919   -0.9800 H   0  0  0  0  0  0
    1.8616   -1.0328    0.0080 H   0  0  0  0  0  0
    1.6634    0.1467   -2.1545 H   0  0  0  0  0  0
    1.6192    1.6986   -1.3266 H   0  0  0  0  0  0
    3.9747   -0.2639   -1.3485 H   0  0  0  0  0  0
    3.9059    1.2743   -2.1913 H   0  0  0  0  0  0
    5.1907    1.4737   -0.0363 H   0  0  0  0  0  0
    3.7698    2.5123   -0.0666 H   0  0  0  0  0  0
    3.8524    1.4925    2.0964 H   0  0  0  0  0  0
    1.6330    1.7586    1.2101 H   0  0  0  0  0  0
    1.8258    0.8155    3.4095 H   0  0  0  0  0  0
    0.4551    0.0508    2.6308 H   0  0  0  0  0  0
    1.8373   -1.6213    3.8629 H   0  0  0  0  0  0
    1.8598   -1.9762    2.1430 H   0  0  0  0  0  0
    4.0400   -0.5064    3.7171 H   0  0  0  0  0  0
    4.1698   -2.1293    3.0479 H   0  0  0  0  0  0
    4.0282   -1.2441    0.7470 H   0  0  0  0  0  0
    5.3189   -0.4182    1.6006 H   0  0  0  0  0  0
  1  2  1  0  0  0
  1 12  1  0  0  0
  1 13  1  0  0  0
  1 14  1  0  0  0
  2  7  1  0  0  0
  2  3  1  0  0  0
  2 15  1  0  0  0
  3  4  1  0  0  0
  3 16  1  0  0  0
  3 17  1  0  0  0
  4  5  1  0  0  0
  4 18  1  0  0  0
  4 19  1  0  0  0
  5  6  1  0  0  0
  5 20  1  0  0  0
  5 21  1  0  0  0
  6 11  1  0  0  0
  6  7  1  0  0  0
  6 22  1  0  0  0
  7  8  1  0  0  0
  7 23  1  0  0  0
  8  9  1  0  0  0
  8 24  1  0  0  0
  8 25  1  0  0  0
  9 10  1  0  0  0
  9 26  1  0  0  0
  9 27  1  0  0  0
 10 11  1  0  0  0
 10 28  1  0  0  0
 10 29  1  0  0  0
 11 30  1  0  0  0
 11 31  1  0  0  0
M  END
>  <i_m_Spin_multiplicity> (1)
1

>  <s_j_Task> (1)
Single Point

>  <s_j_QM_Method> (1)
DFT(b3lyp-d3)

>  <s_j_QM_Basis> (1)
cc-pvtz(-f)

>  <i_j_Number_of_canonical_orbitals> (1)
428

>  <i_j_Geometry_convergence_category> (1)
3

>  <r_j_Gas_Phase_Energy> (1)
-431.411478828759

>  <r_j_Final_Energy> (1)
-431.411478828759

>  <r_j_HOMO> (1)
-0.283568291191601

>  <r_j_LUMO> (1)
0.0178616474274346

>  <r_j_Polarizability> (1)
122.859099978714

>  <r_j_QM_Dipole_(debye)> (1)
0.0851361172599331

>  <r_j_QM_Dipole_X_(debye)> (1)
0.0679669549843479

>  <r_j_QM_Dipole_Y_(debye)> (1)
-0.041209765403302

>  <r_j_QM_Dipole_Z_(debye)> (1)
0.0305025691976513

>  <r_j_Lowest_Frequency_(cm-1)> (1)
121.264147113106

>  <r_j_Highest_Frequency_(cm-1)> (1)
3057.14234559078

>  <r_j_2nd_Lowest_Frequency_(cm-1)> (1)
170.853604402113

>  <i_j_Num_Negative_Frequencies> (1)
0

>  <r_j_Zero_Point_Energy_(kcal/mol)> (1)
182.92626387268

>  <r_j_Entropy_(cal/mol/K)_298.15K_1.00E+00atm> (1)
94.0841596653862

>  <r_j_Enthalpy_(kcal/mol)_298.15K_1.00E+00atm> (1)
6.73189125880476

>  <r_j_Free_Energy_(kcal/mol)_298.15K_1.00E+00atm> (1)
-21.3193009454301

>  <r_j_Internal_Energy_(kcal/mol)_298.15K_1.00E+00atm> (1)
6.13940566997748

>  <r_j_Heat_Capacity_(cal/mol/K)_298.15K_1.00E+00atm> (1)
42.2737937455631

>  <r_j_ln(Q)_298.15K_1.00E+00atm> (1)
35.9828177215721

>  <r_j_Total_Internal_Energy_(au)_298.15K_1.00E+00atm> (1)
-431.110183504017

>  <r_j_Total_Enthalpy_(au)_298.15K_1.00E+00atm> (1)
-431.109239318124

>  <r_j_Total_Free_Energy_(au)_298.15K_1.00E+00atm> (1)
-431.153941738638

>  <r_lp_tautomer_probability> (1)
1

>  <r_epik_Ionization_Penalty> (1)
  0.0000

>  <r_epik_Ionization_Penalty_Charging> (1)
  0.0000

>  <r_epik_Ionization_Penalty_Neutral> (1)
  0.0000

>  <r_epik_State_Penalty> (1)
  0.0000

>  <r_epik_Charging_Adjusted_Penalty> (1)
0

>  <i_epik_Tot_Q> (1)
0

>  <i_epik_Tot_abs_Q> (1)
0

>  <s_lp_Force_Field> (1)
S-OPLS

>  <r_lp_Energy> (1)
18.3822

>  <b_lp_Chiralities_Consistent> (1)
1

$$$$
