34335_Trimethylcyclopentanone
                    3D
 Schrodinger Suite 2021-3.
 21 21  0  0  1  0            999 V2000
   -0.0768    0.0600   -0.0161 C   0  0  0  0  0  0
    1.4573   -0.0435   -0.0385 C   0  0  0  0  0  0
    1.9725   -1.4972   -0.0770 C   0  0  0  0  0  0
    2.8594   -1.5763   -1.3210 C   0  0  0  0  0  0
    3.4716   -2.5587   -1.7047 O   0  0  0  0  0  0
    2.8474   -0.2503   -1.9785 C   0  0  0  0  0  0
    2.0782    0.6046   -1.2702 C   0  0  0  0  0  0
    1.8039    2.0442   -1.5724 C   0  0  0  0  0  0
    3.6309   -0.0364   -3.2347 C   0  0  0  0  0  0
   -0.4142    1.1011   -0.0002 H   0  0  0  0  0  0
   -0.4817   -0.4357    0.8716 H   0  0  0  0  0  0
   -0.5069   -0.4238   -0.9002 H   0  0  0  0  0  0
    1.8412    0.4772    0.8512 H   0  0  0  0  0  0
    2.5529   -1.7773    0.8075 H   0  0  0  0  0  0
    1.1620   -2.2289   -0.1675 H   0  0  0  0  0  0
    1.9780    2.6641   -0.6840 H   0  0  0  0  0  0
    0.7533    2.1893   -1.8531 H   0  0  0  0  0  0
    2.4242    2.4262   -2.3858 H   0  0  0  0  0  0
    4.6862   -0.2777   -3.0672 H   0  0  0  0  0  0
    3.5597    0.9875   -3.6090 H   0  0  0  0  0  0
    3.2817   -0.7181   -4.0180 H   0  0  0  0  0  0
  1  2  1  0  0  0
  1 10  1  0  0  0
  1 11  1  0  0  0
  1 12  1  0  0  0
  2  7  1  0  0  0
  2  3  1  0  0  0
  2 13  1  0  0  0
  3  4  1  0  0  0
  3 14  1  0  0  0
  3 15  1  0  0  0
  4  5  2  0  0  0
  4  6  1  0  0  0
  6  7  2  0  0  0
  6  9  1  0  0  0
  7  8  1  0  0  0
  8 16  1  0  0  0
  8 17  1  0  0  0
  8 18  1  0  0  0
  9 19  1  0  0  0
  9 20  1  0  0  0
  9 21  1  0  0  0
M  END
>  <i_m_Spin_multiplicity> (1)
1

>  <s_j_Task> (1)
Single Point

>  <s_j_QM_Method> (1)
DFT(b3lyp-d3)

>  <s_j_QM_Basis> (1)
cc-pvtz(-f)

>  <i_j_Number_of_canonical_orbitals> (1)
312

>  <i_j_Geometry_convergence_category> (1)
0

>  <r_j_Gas_Phase_Energy> (1)
-387.453026785924

>  <r_j_Final_Energy> (1)
-387.453026785924

>  <r_j_HOMO> (1)
-0.239290328400267

>  <r_j_LUMO> (1)
-0.0394625370715062

>  <r_j_Polarizability> (1)
95.6138045836698

>  <r_j_QM_Dipole_(debye)> (1)
4.00084250481992

>  <r_j_QM_Dipole_X_(debye)> (1)
-1.87139520367894

>  <r_j_QM_Dipole_Y_(debye)> (1)
3.40764818626352

>  <r_j_QM_Dipole_Z_(debye)> (1)
0.944751067041526

>  <r_j_Lowest_Frequency_(cm-1)> (1)
97.5106683981623

>  <r_j_Highest_Frequency_(cm-1)> (1)
3078.7139468567

>  <r_j_2nd_Lowest_Frequency_(cm-1)> (1)
125.527268986471

>  <i_j_Num_Negative_Frequencies> (1)
0

>  <r_j_Zero_Point_Energy_(kcal/mol)> (1)
113.627250707625

>  <r_j_Entropy_(cal/mol/K)_298.15K_1.00E+00atm> (1)
92.0797762434594

>  <r_j_Enthalpy_(kcal/mol)_298.15K_1.00E+00atm> (1)
6.4082586543892

>  <r_j_Free_Energy_(kcal/mol)_298.15K_1.00E+00atm> (1)
-21.0453266325982

>  <r_j_Internal_Energy_(kcal/mol)_298.15K_1.00E+00atm> (1)
5.81577306556192

>  <r_j_Heat_Capacity_(cal/mol/K)_298.15K_1.00E+00atm> (1)
35.4779902269797

>  <r_j_ln(Q)_298.15K_1.00E+00atm> (1)
35.5204025708944

>  <r_j_Total_Internal_Energy_(au)_298.15K_1.00E+00atm> (1)
-387.26268221029

>  <r_j_Total_Enthalpy_(au)_298.15K_1.00E+00atm> (1)
-387.261738024398

>  <r_j_Total_Free_Energy_(au)_298.15K_1.00E+00atm> (1)
-387.305488097663

>  <r_lp_tautomer_probability> (1)
0.499977396165832

>  <r_epik_Ionization_Penalty> (1)
  0.0000

>  <r_epik_Ionization_Penalty_Charging> (1)
  0.0000

>  <r_epik_Ionization_Penalty_Neutral> (1)
  0.0000

>  <r_epik_State_Penalty> (1)
  0.4107

>  <r_epik_Charging_Adjusted_Penalty> (1)
0.410679838952604

>  <i_epik_Tot_Q> (1)
0

>  <i_epik_Tot_abs_Q> (1)
0

>  <s_lp_Force_Field> (1)
S-OPLS

>  <r_lp_Energy> (1)
-6.270105

>  <b_lp_Chiralities_Consistent> (1)
1

$$$$
