3485_Glutaraldehyde
                    3D
 Schrodinger Suite 2021-3.
 15 14  0  0  1  0            999 V2000
   -0.0082   -0.0058    0.0879 C   0  0  0  0  0  0
    1.5296   -0.0464    0.1183 C   0  0  0  0  0  0
    2.0537   -1.4628    0.0251 C   0  0  0  0  0  0
    2.8024   -1.9743    0.8264 O   0  0  0  0  0  0
   -0.5519    1.4334    0.0930 C   0  0  0  0  0  0
   -2.0601    1.4624   -0.0256 C   0  0  0  0  0  0
   -2.8021    2.0121    0.7563 O   0  0  0  0  0  0
   -0.3724   -0.5335   -0.8043 H   0  0  0  0  0  0
   -0.4043   -0.5482    0.9548 H   0  0  0  0  0  0
    1.9213    0.5126   -0.7448 H   0  0  0  0  0  0
    1.9263    0.4122    1.0289 H   0  0  0  0  0  0
    1.6872   -2.0340   -0.8609 H   0  0  0  0  0  0
   -0.2640    1.9692    1.0023 H   0  0  0  0  0  0
   -0.1383    1.9772   -0.7697 H   0  0  0  0  0  0
   -2.4647    0.9172   -0.9115 H   0  0  0  0  0  0
  1  2  1  0  0  0
  1  5  1  0  0  0
  1  8  1  0  0  0
  1  9  1  0  0  0
  2  3  1  0  0  0
  2 10  1  0  0  0
  2 11  1  0  0  0
  3  4  2  0  0  0
  3 12  1  0  0  0
  5  6  1  0  0  0
  5 13  1  0  0  0
  5 14  1  0  0  0
  6  7  2  0  0  0
  6 15  1  0  0  0
M  END
>  <i_m_Spin_multiplicity> (1)
1

>  <s_j_Task> (1)
Single Point

>  <s_j_QM_Method> (1)
DFT(b3lyp-d3)

>  <s_j_QM_Basis> (1)
cc-pvtz(-f)

>  <i_j_Number_of_canonical_orbitals> (1)
232

>  <i_j_Geometry_convergence_category> (1)
0

>  <r_j_Gas_Phase_Energy> (1)
-345.903391546988

>  <r_j_Final_Energy> (1)
-345.903391546988

>  <r_j_HOMO> (1)
-0.263024209073668

>  <r_j_LUMO> (1)
-0.0567443746760028

>  <r_j_Polarizability> (1)
65.0886736024615

>  <r_j_QM_Dipole_(debye)> (1)
2.89753654290835

>  <r_j_QM_Dipole_X_(debye)> (1)
0.334800670486469

>  <r_j_QM_Dipole_Y_(debye)> (1)
0.417960062745962

>  <r_j_QM_Dipole_Z_(debye)> (1)
-2.84761934156945

>  <r_j_Lowest_Frequency_(cm-1)> (1)
90.0829857654736

>  <r_j_Highest_Frequency_(cm-1)> (1)
3057.84247571965

>  <r_j_2nd_Lowest_Frequency_(cm-1)> (1)
126.119756870117

>  <i_j_Num_Negative_Frequencies> (1)
0

>  <r_j_Zero_Point_Energy_(kcal/mol)> (1)
76.5818736149673

>  <r_j_Entropy_(cal/mol/K)_298.15K_1.00E+00atm> (1)
86.5867089814237

>  <r_j_Enthalpy_(kcal/mol)_298.15K_1.00E+00atm> (1)
5.4507931905131

>  <r_j_Free_Energy_(kcal/mol)_298.15K_1.00E+00atm> (1)
-20.3650340922984

>  <r_j_Internal_Energy_(kcal/mol)_298.15K_1.00E+00atm> (1)
4.85830760168583

>  <r_j_Heat_Capacity_(cal/mol/K)_298.15K_1.00E+00atm> (1)
26.2583206818288

>  <r_j_ln(Q)_298.15K_1.00E+00atm> (1)
34.3722015798013

>  <r_j_Total_Internal_Energy_(au)_298.15K_1.00E+00atm> (1)
-345.773608356279

>  <r_j_Total_Enthalpy_(au)_298.15K_1.00E+00atm> (1)
-345.772664170387

>  <r_j_Total_Free_Energy_(au)_298.15K_1.00E+00atm> (1)
-345.813804310125

>  <r_lp_tautomer_probability> (1)
1

>  <r_epik_Ionization_Penalty> (1)
  0.0000

>  <r_epik_Ionization_Penalty_Charging> (1)
  0.0000

>  <r_epik_Ionization_Penalty_Neutral> (1)
  0.0000

>  <r_epik_State_Penalty> (1)
  0.0000

>  <r_epik_Charging_Adjusted_Penalty> (1)
0

>  <i_epik_Tot_Q> (1)
0

>  <i_epik_Tot_abs_Q> (1)
0

>  <s_lp_Force_Field> (1)
S-OPLS

>  <r_lp_Energy> (1)
1.929092

>  <b_lp_Chiralities_Consistent> (1)
1

$$$$
