35365_1,1,4-trimethylcyclohexane
                    3D
 Schrodinger Suite 2021-3.
 27 27  0  0  1  0            999 V2000
   -0.0433   -0.1017   -0.0023 C   0  0  0  0  0  0
    1.4851   -0.0048   -0.0018 C   0  0  0  0  0  0
    2.0101    0.7053   -1.2619 C   0  0  0  0  0  0
    3.5413    0.8264   -1.2583 C   0  0  0  0  0  0
    4.1071    1.5282    0.0011 C   0  0  0  0  0  0
    3.5407    0.8228    1.2581 C   0  0  0  0  0  0
    2.0095    0.7018    1.2606 C   0  0  0  0  0  0
    5.6405    1.4085    0.0014 C   0  0  0  0  0  0
    3.7369    3.0246    0.0031 C   0  0  0  0  0  0
   -0.4955    0.8978   -0.0010 H   0  0  0  0  0  0
   -0.4101   -0.6332    0.8829 H   0  0  0  0  0  0
   -0.4097   -0.6308   -0.8890 H   0  0  0  0  0  0
    1.8963   -1.0271   -0.0031 H   0  0  0  0  0  0
    1.6840    0.1621   -2.1579 H   0  0  0  0  0  0
    1.5512    1.7016   -1.3269 H   0  0  0  0  0  0
    3.9710   -0.1842   -1.3124 H   0  0  0  0  0  0
    3.8832    1.3556   -2.1573 H   0  0  0  0  0  0
    3.9703   -0.1880    1.3094 H   0  0  0  0  0  0
    3.8822    1.3494    2.1588 H   0  0  0  0  0  0
    1.5507    1.6980    1.3281 H   0  0  0  0  0  0
    1.6829    0.1562    2.1549 H   0  0  0  0  0  0
    6.0726    1.8873    0.8878 H   0  0  0  0  0  0
    6.0732    1.8901   -0.8832 H   0  0  0  0  0  0
    5.9564    0.3590   -0.0002 H   0  0  0  0  0  0
    4.1472    3.5221    0.8893 H   0  0  0  0  0  0
    2.6565    3.1915    0.0030 H   0  0  0  0  0  0
    4.1477    3.5246   -0.8814 H   0  0  0  0  0  0
  1  2  1  0  0  0
  1 10  1  0  0  0
  1 11  1  0  0  0
  1 12  1  0  0  0
  2  7  1  0  0  0
  2  3  1  0  0  0
  2 13  1  0  0  0
  3  4  1  0  0  0
  3 14  1  0  0  0
  3 15  1  0  0  0
  4  5  1  0  0  0
  4 16  1  0  0  0
  4 17  1  0  0  0
  5  6  1  0  0  0
  5  8  1  0  0  0
  5  9  1  0  0  0
  6  7  1  0  0  0
  6 18  1  0  0  0
  6 19  1  0  0  0
  7 20  1  0  0  0
  7 21  1  0  0  0
  8 22  1  0  0  0
  8 23  1  0  0  0
  8 24  1  0  0  0
  9 25  1  0  0  0
  9 26  1  0  0  0
  9 27  1  0  0  0
M  END
>  <i_m_Spin_multiplicity> (1)
1

>  <s_j_Task> (1)
Single Point

>  <s_j_QM_Method> (1)
DFT(b3lyp-d3)

>  <s_j_QM_Basis> (1)
cc-pvtz(-f)

>  <i_j_Number_of_canonical_orbitals> (1)
365

>  <i_j_Geometry_convergence_category> (1)
3

>  <r_j_Gas_Phase_Energy> (1)
-353.96543978494

>  <r_j_Final_Energy> (1)
-353.96543978494

>  <r_j_HOMO> (1)
-0.284563032475033

>  <r_j_LUMO> (1)
0.032202213640078

>  <r_j_Polarizability> (1)
105.403500958935

>  <r_j_QM_Dipole_(debye)> (1)
0.0863975999177858

>  <r_j_QM_Dipole_X_(debye)> (1)
-0.0138377994816832

>  <r_j_QM_Dipole_Y_(debye)> (1)
-0.0852819674401411

>  <r_j_QM_Dipole_Z_(debye)> (1)
-0.000215885611427998

>  <r_j_Lowest_Frequency_(cm-1)> (1)
118.447795905672

>  <r_j_Highest_Frequency_(cm-1)> (1)
3061.08654116026

>  <r_j_2nd_Lowest_Frequency_(cm-1)> (1)
243.372552217354

>  <i_j_Num_Negative_Frequencies> (1)
0

>  <r_j_Zero_Point_Energy_(kcal/mol)> (1)
158.992046132604

>  <r_j_Entropy_(cal/mol/K)_298.15K_1.00E+00atm> (1)
90.7173290685384

>  <r_j_Enthalpy_(kcal/mol)_298.15K_1.00E+00atm> (1)
6.43052002037642

>  <r_j_Free_Energy_(kcal/mol)_298.15K_1.00E+00atm> (1)
-20.6168516414083

>  <r_j_Internal_Energy_(kcal/mol)_298.15K_1.00E+00atm> (1)
5.83803443154915

>  <r_j_Heat_Capacity_(cal/mol/K)_298.15K_1.00E+00atm> (1)
38.971142729552

>  <r_j_ln(Q)_298.15K_1.00E+00atm> (1)
34.7972204390927

>  <r_j_Total_Internal_Energy_(au)_298.15K_1.00E+00atm> (1)
-353.702766329886

>  <r_j_Total_Enthalpy_(au)_298.15K_1.00E+00atm> (1)
-353.701822143994

>  <r_j_Total_Free_Energy_(au)_298.15K_1.00E+00atm> (1)
-353.744924874637

>  <r_lp_tautomer_probability> (1)
1

>  <r_epik_Ionization_Penalty> (1)
  0.0000

>  <r_epik_Ionization_Penalty_Charging> (1)
  0.0000

>  <r_epik_Ionization_Penalty_Neutral> (1)
  0.0000

>  <r_epik_State_Penalty> (1)
  0.0000

>  <r_epik_Charging_Adjusted_Penalty> (1)
0

>  <i_epik_Tot_Q> (1)
0

>  <i_epik_Tot_abs_Q> (1)
0

>  <s_lp_Force_Field> (1)
S-OPLS

>  <r_lp_Energy> (1)
15.4099

>  <b_lp_Chiralities_Consistent> (1)
1

$$$$
