35363_1,1,2-trimethylcyclohexane
                    3D
 Schrodinger Suite 2021-3.
 27 27  0  0  1  0            999 V2000
   -0.0525   -0.0514   -0.0984 C   0  0  0  0  0  0
    1.4770    0.0468    0.0015 C   0  0  0  0  0  0
    2.0478    0.6979   -1.2755 C   0  0  0  0  0  0
    3.5802    0.7546   -1.2764 C   0  0  0  0  0  0
    4.1040    1.4618   -0.0203 C   0  0  0  0  0  0
    3.5446    0.8011    1.2464 C   0  0  0  0  0  0
    1.9948    0.7423    1.3041 C   0  0  0  0  0  0
    1.4164    2.1627    1.4699 C   0  0  0  0  0  0
    1.6032   -0.0851    2.5439 C   0  0  0  0  0  0
   -0.5113    0.9379   -0.2014 H   0  0  0  0  0  0
   -0.4973   -0.5384    0.7738 H   0  0  0  0  0  0
   -0.3374   -0.6344   -0.9808 H   0  0  0  0  0  0
    1.8712   -0.9815    0.0362 H   0  0  0  0  0  0
    1.6913    0.1391   -2.1502 H   0  0  0  0  0  0
    1.6429    1.7139   -1.3810 H   0  0  0  0  0  0
    3.9773   -0.2704   -1.3026 H   0  0  0  0  0  0
    3.9434    1.2543   -2.1825 H   0  0  0  0  0  0
    5.2002    1.4404    0.0029 H   0  0  0  0  0  0
    3.8176    2.5212   -0.0499 H   0  0  0  0  0  0
    3.9301   -0.2275    1.3014 H   0  0  0  0  0  0
    3.9167    1.3173    2.1409 H   0  0  0  0  0  0
    1.8499    2.6463    2.3525 H   0  0  0  0  0  0
    0.3316    2.1367    1.6111 H   0  0  0  0  0  0
    1.6222    2.8048    0.6094 H   0  0  0  0  0  0
    2.0531    0.3426    3.4473 H   0  0  0  0  0  0
    1.9526   -1.1203    2.4558 H   0  0  0  0  0  0
    0.5202   -0.1072    2.6990 H   0  0  0  0  0  0
  1  2  1  0  0  0
  1 10  1  0  0  0
  1 11  1  0  0  0
  1 12  1  0  0  0
  2  7  1  0  0  0
  2  3  1  0  0  0
  2 13  1  0  0  0
  3  4  1  0  0  0
  3 14  1  0  0  0
  3 15  1  0  0  0
  4  5  1  0  0  0
  4 16  1  0  0  0
  4 17  1  0  0  0
  5  6  1  0  0  0
  5 18  1  0  0  0
  5 19  1  0  0  0
  6  7  1  0  0  0
  6 20  1  0  0  0
  6 21  1  0  0  0
  7  8  1  0  0  0
  7  9  1  0  0  0
  8 22  1  0  0  0
  8 23  1  0  0  0
  8 24  1  0  0  0
  9 25  1  0  0  0
  9 26  1  0  0  0
  9 27  1  0  0  0
M  END
>  <i_m_Spin_multiplicity> (1)
1

>  <s_j_Task> (1)
Single Point

>  <s_j_QM_Method> (1)
DFT(b3lyp-d3)

>  <s_j_QM_Basis> (1)
cc-pvtz(-f)

>  <i_j_Number_of_canonical_orbitals> (1)
365

>  <i_j_Geometry_convergence_category> (1)
0

>  <r_j_Gas_Phase_Energy> (1)
-353.962227994433

>  <r_j_Final_Energy> (1)
-353.962227994433

>  <r_j_HOMO> (1)
-0.288135450796164

>  <r_j_LUMO> (1)
0.0278275229639897

>  <r_j_Polarizability> (1)
104.261290349352

>  <r_j_QM_Dipole_(debye)> (1)
0.112716891438148

>  <r_j_QM_Dipole_X_(debye)> (1)
0.0815941714529113

>  <r_j_QM_Dipole_Y_(debye)> (1)
-0.0136900435095018

>  <r_j_QM_Dipole_Z_(debye)> (1)
-0.0765511039051697

>  <r_j_Lowest_Frequency_(cm-1)> (1)
139.330164218186

>  <r_j_Highest_Frequency_(cm-1)> (1)
3063.98585864048

>  <r_j_2nd_Lowest_Frequency_(cm-1)> (1)
212.419165199651

>  <i_j_Num_Negative_Frequencies> (1)
0

>  <r_j_Zero_Point_Energy_(kcal/mol)> (1)
159.185015986586

>  <r_j_Entropy_(cal/mol/K)_298.15K_1.00E+00atm> (1)
90.2486457588699

>  <r_j_Enthalpy_(kcal/mol)_298.15K_1.00E+00atm> (1)
6.39637122671983

>  <r_j_Free_Energy_(kcal/mol)_298.15K_1.00E+00atm> (1)
-20.5112625062872

>  <r_j_Internal_Energy_(kcal/mol)_298.15K_1.00E+00atm> (1)
5.80388563789256

>  <r_j_Heat_Capacity_(cal/mol/K)_298.15K_1.00E+00atm> (1)
38.9305980102053

>  <r_j_ln(Q)_298.15K_1.00E+00atm> (1)
34.6190065937061

>  <r_j_Total_Internal_Energy_(au)_298.15K_1.00E+00atm> (1)
-353.699301441907

>  <r_j_Total_Enthalpy_(au)_298.15K_1.00E+00atm> (1)
-353.698357256015

>  <r_j_Total_Free_Energy_(au)_298.15K_1.00E+00atm> (1)
-353.741237300093

>  <r_lp_tautomer_probability> (1)
1

>  <r_epik_Ionization_Penalty> (1)
  0.0000

>  <r_epik_Ionization_Penalty_Charging> (1)
  0.0000

>  <r_epik_Ionization_Penalty_Neutral> (1)
  0.0000

>  <r_epik_State_Penalty> (1)
  0.0000

>  <r_epik_Charging_Adjusted_Penalty> (1)
0

>  <i_epik_Tot_Q> (1)
0

>  <i_epik_Tot_abs_Q> (1)
0

>  <s_lp_Force_Field> (1)
S-OPLS

>  <r_lp_Energy> (1)
16.0669

>  <b_lp_Chiralities_Consistent> (1)
1

$$$$
