35364_1,3,5-trimethylcyclohexane
                    3D
 Schrodinger Suite 2021-3.
 27 27  0  0  1  0            999 V2000
   -0.0426   -0.0411   -0.0006 C   0  0  0  0  0  0
    1.4884    0.0168    0.0000 C   0  0  0  0  0  0
    2.0272    0.7135   -1.2608 C   0  0  0  0  0  0
    3.5623    0.8049   -1.2807 C   0  0  0  0  0  0
    4.0687    1.4891   -0.0001 C   0  0  0  0  0  0
    3.5622    0.8050    1.2809 C   0  0  0  0  0  0
    2.0270    0.7128    1.2614 C   0  0  0  0  0  0
    4.0670    1.5208    2.5380 C   0  0  0  0  0  0
    4.0665    1.5204   -2.5380 C   0  0  0  0  0  0
   -0.4694    0.9695   -0.0010 H   0  0  0  0  0  0
   -0.4226   -0.5618    0.8853 H   0  0  0  0  0  0
   -0.4218   -0.5623   -0.8865 H   0  0  0  0  0  0
    1.8711   -1.0160   -0.0001 H   0  0  0  0  0  0
    1.6718    0.1903   -2.1584 H   0  0  0  0  0  0
    1.6100    1.7317   -1.3098 H   0  0  0  0  0  0
    3.9578   -0.2231   -1.2885 H   0  0  0  0  0  0
    5.1665    1.5179   -0.0003 H   0  0  0  0  0  0
    3.7310    2.5376   -0.0003 H   0  0  0  0  0  0
    3.9578   -0.2229    1.2889 H   0  0  0  0  0  0
    1.6093    1.7308    1.3112 H   0  0  0  0  0  0
    1.6719    0.1887    2.1587 H   0  0  0  0  0  0
    3.6965    2.5527    2.5723 H   0  0  0  0  0  0
    5.1617    1.5597    2.5626 H   0  0  0  0  0  0
    3.7271    1.0152    3.4486 H   0  0  0  0  0  0
    3.6952    2.5521   -2.5728 H   0  0  0  0  0  0
    3.7270    1.0141   -3.4484 H   0  0  0  0  0  0
    5.1612    1.5602   -2.5626 H   0  0  0  0  0  0
  1  2  1  0  0  0
  1 10  1  0  0  0
  1 11  1  0  0  0
  1 12  1  0  0  0
  2  7  1  0  0  0
  2  3  1  0  0  0
  2 13  1  0  0  0
  3  4  1  0  0  0
  3 14  1  0  0  0
  3 15  1  0  0  0
  4  5  1  0  0  0
  4  9  1  0  0  0
  4 16  1  0  0  0
  5  6  1  0  0  0
  5 17  1  0  0  0
  5 18  1  0  0  0
  6  7  1  0  0  0
  6  8  1  0  0  0
  6 19  1  0  0  0
  7 20  1  0  0  0
  7 21  1  0  0  0
  8 22  1  0  0  0
  8 23  1  0  0  0
  8 24  1  0  0  0
  9 25  1  0  0  0
  9 26  1  0  0  0
  9 27  1  0  0  0
M  END
>  <i_m_Spin_multiplicity> (1)
1

>  <s_j_Task> (1)
Single Point

>  <s_j_QM_Method> (1)
DFT(b3lyp-d3)

>  <s_j_QM_Basis> (1)
cc-pvtz(-f)

>  <i_j_Number_of_canonical_orbitals> (1)
365

>  <i_j_Geometry_convergence_category> (1)
0

>  <r_j_Gas_Phase_Energy> (1)
-353.967758181918

>  <r_j_Final_Energy> (1)
-353.967758181918

>  <r_j_HOMO> (1)
-0.288873471757903

>  <r_j_LUMO> (1)
0.0308994426261646

>  <r_j_Polarizability> (1)
106.487070242298

>  <r_j_QM_Dipole_(debye)> (1)
0.245604654827645

>  <r_j_QM_Dipole_X_(debye)> (1)
0.0866392181727832

>  <r_j_QM_Dipole_Y_(debye)> (1)
-0.229813588976957

>  <r_j_QM_Dipole_Z_(debye)> (1)
0.0010033289319029

>  <r_j_Lowest_Frequency_(cm-1)> (1)
178.441580546732

>  <r_j_Highest_Frequency_(cm-1)> (1)
3043.05298512402

>  <r_j_2nd_Lowest_Frequency_(cm-1)> (1)
178.686106740942

>  <i_j_Num_Negative_Frequencies> (1)
0

>  <r_j_Zero_Point_Energy_(kcal/mol)> (1)
158.920292232645

>  <r_j_Entropy_(cal/mol/K)_298.15K_1.00E+00atm> (1)
91.96957629309

>  <r_j_Enthalpy_(kcal/mol)_298.15K_1.00E+00atm> (1)
6.54106928464615

>  <r_j_Free_Energy_(kcal/mol)_298.15K_1.00E+00atm> (1)
-20.8796598871386

>  <r_j_Internal_Energy_(kcal/mol)_298.15K_1.00E+00atm> (1)
5.94858369581888

>  <r_j_Heat_Capacity_(cal/mol/K)_298.15K_1.00E+00atm> (1)
38.8472664085823

>  <r_j_ln(Q)_298.15K_1.00E+00atm> (1)
35.2407894485103

>  <r_j_Total_Internal_Energy_(au)_298.15K_1.00E+00atm> (1)
-353.705022902516

>  <r_j_Total_Enthalpy_(au)_298.15K_1.00E+00atm> (1)
-353.704078716623

>  <r_j_Total_Free_Energy_(au)_298.15K_1.00E+00atm> (1)
-353.747776430336

>  <r_lp_tautomer_probability> (1)
1

>  <r_epik_Ionization_Penalty> (1)
  0.0000

>  <r_epik_Ionization_Penalty_Charging> (1)
  0.0000

>  <r_epik_Ionization_Penalty_Neutral> (1)
  0.0000

>  <r_epik_State_Penalty> (1)
  0.0000

>  <r_epik_Charging_Adjusted_Penalty> (1)
0

>  <i_epik_Tot_Q> (1)
0

>  <i_epik_Tot_abs_Q> (1)
0

>  <s_lp_Force_Field> (1)
S-OPLS

>  <r_lp_Energy> (1)
9.338264

>  <b_lp_Chiralities_Consistent> (1)
1

$$$$
