35367_1,1,2-trimethylcyclopentane
                    3D
 Schrodinger Suite 2021-3.
 24 24  0  0  1  0            999 V2000
   -0.0395   -0.0984   -0.0609 C   0  0  0  0  0  0
    1.4836    0.0144   -0.0057 C   0  0  0  0  0  0
    2.1032    0.7298   -1.2299 C   0  0  0  0  0  0
    3.4612    1.3125   -0.7424 C   0  0  0  0  0  0
    3.5457    0.9535    0.7604 C   0  0  0  0  0  0
    2.0826    0.7591    1.2251 C   0  0  0  0  0  0
    1.4100    2.1265    1.4569 C   0  0  0  0  0  0
    1.9932   -0.0727    2.5098 C   0  0  0  0  0  0
   -0.5101    0.8862   -0.1543 H   0  0  0  0  0  0
   -0.4425   -0.5804    0.8365 H   0  0  0  0  0  0
   -0.3539   -0.6942   -0.9248 H   0  0  0  0  0  0
    1.8953   -1.0057    0.0303 H   0  0  0  0  0  0
    2.2162    0.0457   -2.0771 H   0  0  0  0  0  0
    1.4379    1.5328   -1.5692 H   0  0  0  0  0  0
    4.3114    0.9085   -1.3002 H   0  0  0  0  0  0
    3.4854    2.3980   -0.8831 H   0  0  0  0  0  0
    4.0862    0.0068    0.8885 H   0  0  0  0  0  0
    4.0771    1.7066    1.3530 H   0  0  0  0  0  0
    1.9327    2.6767    2.2472 H   0  0  0  0  0  0
    0.3671    2.0115    1.7695 H   0  0  0  0  0  0
    1.4201    2.7508    0.5577 H   0  0  0  0  0  0
    2.4932    0.4354    3.3424 H   0  0  0  0  0  0
    2.4679   -1.0522    2.3811 H   0  0  0  0  0  0
    0.9513   -0.2403    2.8058 H   0  0  0  0  0  0
  1  2  1  0  0  0
  1  9  1  0  0  0
  1 10  1  0  0  0
  1 11  1  0  0  0
  2  6  1  0  0  0
  2  3  1  0  0  0
  2 12  1  0  0  0
  3  4  1  0  0  0
  3 13  1  0  0  0
  3 14  1  0  0  0
  4  5  1  0  0  0
  4 15  1  0  0  0
  4 16  1  0  0  0
  5  6  1  0  0  0
  5 17  1  0  0  0
  5 18  1  0  0  0
  6  7  1  0  0  0
  6  8  1  0  0  0
  7 19  1  0  0  0
  7 20  1  0  0  0
  7 21  1  0  0  0
  8 22  1  0  0  0
  8 23  1  0  0  0
  8 24  1  0  0  0
M  END
>  <i_m_Spin_multiplicity> (1)
1

>  <s_j_Task> (1)
Single Point

>  <s_j_QM_Method> (1)
DFT(b3lyp-d3)

>  <s_j_QM_Basis> (1)
cc-pvtz(-f)

>  <i_j_Number_of_canonical_orbitals> (1)
325

>  <i_j_Geometry_convergence_category> (1)
3

>  <r_j_Gas_Phase_Energy> (1)
-314.626279176091

>  <r_j_Final_Energy> (1)
-314.626279176091

>  <r_j_HOMO> (1)
-0.29626889804711

>  <r_j_LUMO> (1)
0.0241100855086308

>  <r_j_Polarizability> (1)
92.5265497703762

>  <r_j_QM_Dipole_(debye)> (1)
0.0732433167097319

>  <r_j_QM_Dipole_X_(debye)> (1)
0.0339866458555836

>  <r_j_QM_Dipole_Y_(debye)> (1)
-0.0552201934838059

>  <r_j_QM_Dipole_Z_(debye)> (1)
-0.0340620254497627

>  <r_j_Lowest_Frequency_(cm-1)> (1)
152.660593953595

>  <r_j_Highest_Frequency_(cm-1)> (1)
3053.70139043345

>  <r_j_2nd_Lowest_Frequency_(cm-1)> (1)
184.589892887649

>  <i_j_Num_Negative_Frequencies> (1)
0

>  <r_j_Zero_Point_Energy_(kcal/mol)> (1)
140.682228638413

>  <r_j_Entropy_(cal/mol/K)_298.15K_1.00E+00atm> (1)
86.8933262541909

>  <r_j_Enthalpy_(kcal/mol)_298.15K_1.00E+00atm> (1)
5.92270382366574

>  <r_j_Free_Energy_(kcal/mol)_298.15K_1.00E+00atm> (1)
-19.9845413990213

>  <r_j_Internal_Energy_(kcal/mol)_298.15K_1.00E+00atm> (1)
5.33021823483847

>  <r_j_Heat_Capacity_(cal/mol/K)_298.15K_1.00E+00atm> (1)
34.7470945919857

>  <r_j_ln(Q)_298.15K_1.00E+00atm> (1)
33.7300041990512

>  <r_j_Total_Internal_Energy_(au)_298.15K_1.00E+00atm> (1)
-314.393593529334

>  <r_j_Total_Enthalpy_(au)_298.15K_1.00E+00atm> (1)
-314.392649343442

>  <r_j_Total_Free_Energy_(au)_298.15K_1.00E+00atm> (1)
-314.433935166941

>  <r_lp_tautomer_probability> (1)
1

>  <r_epik_Ionization_Penalty> (1)
  0.0000

>  <r_epik_Ionization_Penalty_Charging> (1)
  0.0000

>  <r_epik_Ionization_Penalty_Neutral> (1)
  0.0000

>  <r_epik_State_Penalty> (1)
  0.0000

>  <r_epik_Charging_Adjusted_Penalty> (1)
0

>  <i_epik_Tot_Q> (1)
0

>  <i_epik_Tot_abs_Q> (1)
0

>  <s_lp_Force_Field> (1)
S-OPLS

>  <r_lp_Energy> (1)
9.81813

>  <b_lp_Chiralities_Consistent> (1)
1

$$$$
