35412_Cis-1-ethyl-3-methylcyclohexane
                    3D
 Schrodinger Suite 2021-3.
 27 27  0  0  1  0            999 V2000
   -0.6521    1.4298    0.0883 C   0  0  0  0  0  0
   -0.0322    0.0304    0.0086 C   0  0  0  0  0  0
    1.5059    0.0078   -0.0398 C   0  0  0  0  0  0
    2.0383   -1.4333    0.0663 C   0  0  0  0  0  0
    3.5711   -1.4912    0.0144 C   0  0  0  0  0  0
    4.1108   -0.8070   -1.2489 C   0  0  0  0  0  0
    3.6100    0.6422   -1.3702 C   0  0  0  0  0  0
    2.0725    0.6858   -1.3014 C   0  0  0  0  0  0
    4.1315    1.3153   -2.6438 C   0  0  0  0  0  0
   -1.7399    1.3730    0.1980 H   0  0  0  0  0  0
   -0.4446    2.0209   -0.8091 H   0  0  0  0  0  0
   -0.2595    1.9846    0.9485 H   0  0  0  0  0  0
   -0.3610   -0.5540    0.8785 H   0  0  0  0  0  0
   -0.4229   -0.4958   -0.8741 H   0  0  0  0  0  0
    1.8785    0.5658    0.8351 H   0  0  0  0  0  0
    1.6709   -1.8989    0.9895 H   0  0  0  0  0  0
    1.6259   -2.0236   -0.7659 H   0  0  0  0  0  0
    3.9816   -0.9875    0.9011 H   0  0  0  0  0  0
    3.9138   -2.5319    0.0609 H   0  0  0  0  0  0
    5.2080   -0.8265   -1.2572 H   0  0  0  0  0  0
    3.7816   -1.3696   -2.1356 H   0  0  0  0  0  0
    3.9970    1.2006   -0.5030 H   0  0  0  0  0  0
    1.6625    0.1796   -2.1898 H   0  0  0  0  0  0
    1.7388    1.7287   -1.3581 H   0  0  0  0  0  0
    3.7686    0.7911   -3.5365 H   0  0  0  0  0  0
    5.2267    1.3103   -2.6779 H   0  0  0  0  0  0
    3.7972    2.3566   -2.7112 H   0  0  0  0  0  0
  1  2  1  0  0  0
  1 10  1  0  0  0
  1 11  1  0  0  0
  1 12  1  0  0  0
  2  3  1  0  0  0
  2 13  1  0  0  0
  2 14  1  0  0  0
  3  8  1  0  0  0
  3  4  1  0  0  0
  3 15  1  0  0  0
  4  5  1  0  0  0
  4 16  1  0  0  0
  4 17  1  0  0  0
  5  6  1  0  0  0
  5 18  1  0  0  0
  5 19  1  0  0  0
  6  7  1  0  0  0
  6 20  1  0  0  0
  6 21  1  0  0  0
  7  8  1  0  0  0
  7  9  1  0  0  0
  7 22  1  0  0  0
  8 23  1  0  0  0
  8 24  1  0  0  0
  9 25  1  0  0  0
  9 26  1  0  0  0
  9 27  1  0  0  0
M  END
>  <i_m_Spin_multiplicity> (1)
1

>  <s_j_Task> (1)
Single Point

>  <s_j_QM_Method> (1)
DFT(b3lyp-d3)

>  <s_j_QM_Basis> (1)
cc-pvtz(-f)

>  <i_j_Number_of_canonical_orbitals> (1)
365

>  <i_j_Geometry_convergence_category> (1)
3

>  <r_j_Gas_Phase_Energy> (1)
-353.964406832646

>  <r_j_Final_Energy> (1)
-353.964406832646

>  <r_j_HOMO> (1)
-0.287708979944712

>  <r_j_LUMO> (1)
0.0326567138048765

>  <r_j_Polarizability> (1)
105.966849590503

>  <r_j_QM_Dipole_(debye)> (1)
0.148045302362403

>  <r_j_QM_Dipole_X_(debye)> (1)
0.036640189235731

>  <r_j_QM_Dipole_Y_(debye)> (1)
-0.0209859719410256

>  <r_j_QM_Dipole_Z_(debye)> (1)
0.141896078402595

>  <r_j_Lowest_Frequency_(cm-1)> (1)
119.752195006766

>  <r_j_Highest_Frequency_(cm-1)> (1)
3053.05342016391

>  <r_j_2nd_Lowest_Frequency_(cm-1)> (1)
161.42556525929

>  <i_j_Num_Negative_Frequencies> (1)
0

>  <r_j_Zero_Point_Energy_(kcal/mol)> (1)
159.316775184157

>  <r_j_Entropy_(cal/mol/K)_298.15K_1.00E+00atm> (1)
92.4239529016786

>  <r_j_Enthalpy_(kcal/mol)_298.15K_1.00E+00atm> (1)
6.50611764697248

>  <r_j_Free_Energy_(kcal/mol)_298.15K_1.00E+00atm> (1)
-21.050083910663

>  <r_j_Internal_Energy_(kcal/mol)_298.15K_1.00E+00atm> (1)
5.91363205814521

>  <r_j_Heat_Capacity_(cal/mol/K)_298.15K_1.00E+00atm> (1)
38.1806976008222

>  <r_j_ln(Q)_298.15K_1.00E+00atm> (1)
35.5284319274805

>  <r_j_Total_Internal_Energy_(au)_298.15K_1.00E+00atm> (1)
-353.701095416417

>  <r_j_Total_Enthalpy_(au)_298.15K_1.00E+00atm> (1)
-353.700151230525

>  <r_j_Total_Free_Energy_(au)_298.15K_1.00E+00atm> (1)
-353.744064833228

>  <r_lp_tautomer_probability> (1)
1

>  <r_epik_Ionization_Penalty> (1)
  0.0000

>  <r_epik_Ionization_Penalty_Charging> (1)
  0.0000

>  <r_epik_Ionization_Penalty_Neutral> (1)
  0.0000

>  <r_epik_State_Penalty> (1)
  0.0000

>  <r_epik_Charging_Adjusted_Penalty> (1)
0

>  <i_epik_Tot_Q> (1)
0

>  <i_epik_Tot_abs_Q> (1)
0

>  <s_lp_Force_Field> (1)
S-OPLS

>  <r_lp_Energy> (1)
9.44074

>  <b_lp_Chiralities_Consistent> (1)
1

$$$$
