35413_Cis-1-ethyl-2-methylcyclohexane
                    3D
 Schrodinger Suite 2021-3.
 27 27  0  0  1  0            999 V2000
   -0.6135    1.4892   -0.0456 C   0  0  0  0  0  0
   -0.0274    0.0727    0.0005 C   0  0  0  0  0  0
    1.5129    0.0106    0.0328 C   0  0  0  0  0  0
    2.0862    0.7677    1.2489 C   0  0  0  0  0  0
    3.6185    0.7271    1.3077 C   0  0  0  0  0  0
    4.1324   -0.7164    1.2909 C   0  0  0  0  0  0
    3.5840   -1.4712    0.0753 C   0  0  0  0  0  0
    2.0442   -1.4474    0.0038 C   0  0  0  0  0  0
    1.5684   -2.2400   -1.2221 C   0  0  0  0  0  0
   -1.6983    1.4565   -0.1898 H   0  0  0  0  0  0
   -0.1857    2.0639   -0.8757 H   0  0  0  0  0  0
   -0.4236    2.0471    0.8759 H   0  0  0  0  0  0
   -0.4222   -0.4609    0.8773 H   0  0  0  0  0  0
   -0.3907   -0.4733   -0.8764 H   0  0  0  0  0  0
    1.8871    0.5096   -0.8775 H   0  0  0  0  0  0
    1.7502    1.8098    1.2359 H   0  0  0  0  0  0
    1.6751    0.3196    2.1665 H   0  0  0  0  0  0
    4.0266    1.2651    0.4401 H   0  0  0  0  0  0
    3.9767    1.2550    2.1997 H   0  0  0  0  0  0
    5.2288   -0.7373    1.2906 H   0  0  0  0  0  0
    3.8089   -1.2264    2.2097 H   0  0  0  0  0  0
    3.9857   -1.0188   -0.8440 H   0  0  0  0  0  0
    3.9325   -2.5117    0.0847 H   0  0  0  0  0  0
    1.6624   -1.9502    0.9075 H   0  0  0  0  0  0
    1.8416   -1.7210   -2.1494 H   0  0  0  0  0  0
    0.4860   -2.3918   -1.2306 H   0  0  0  0  0  0
    2.0371   -3.2297   -1.2473 H   0  0  0  0  0  0
  1  2  1  0  0  0
  1 10  1  0  0  0
  1 11  1  0  0  0
  1 12  1  0  0  0
  2  3  1  0  0  0
  2 13  1  0  0  0
  2 14  1  0  0  0
  3  8  1  0  0  0
  3  4  1  0  0  0
  3 15  1  0  0  0
  4  5  1  0  0  0
  4 16  1  0  0  0
  4 17  1  0  0  0
  5  6  1  0  0  0
  5 18  1  0  0  0
  5 19  1  0  0  0
  6  7  1  0  0  0
  6 20  1  0  0  0
  6 21  1  0  0  0
  7  8  1  0  0  0
  7 22  1  0  0  0
  7 23  1  0  0  0
  8  9  1  0  0  0
  8 24  1  0  0  0
  9 25  1  0  0  0
  9 26  1  0  0  0
  9 27  1  0  0  0
M  END
>  <i_m_Spin_multiplicity> (1)
1

>  <s_j_Task> (1)
Single Point

>  <s_j_QM_Method> (1)
DFT(b3lyp-d3)

>  <s_j_QM_Basis> (1)
cc-pvtz(-f)

>  <i_j_Number_of_canonical_orbitals> (1)
365

>  <i_j_Geometry_convergence_category> (1)
3

>  <r_j_Gas_Phase_Energy> (1)
-353.961754049294

>  <r_j_Final_Energy> (1)
-353.961754049294

>  <r_j_HOMO> (1)
-0.293571368377883

>  <r_j_LUMO> (1)
0.0275091932430108

>  <r_j_Polarizability> (1)
105.373231406417

>  <r_j_QM_Dipole_(debye)> (1)
0.0490977768221407

>  <r_j_QM_Dipole_X_(debye)> (1)
0.00710368355990535

>  <r_j_QM_Dipole_Y_(debye)> (1)
-0.0153835064331639

>  <r_j_QM_Dipole_Z_(debye)> (1)
0.0460812011407936

>  <r_j_Lowest_Frequency_(cm-1)> (1)
112.918303903472

>  <r_j_Highest_Frequency_(cm-1)> (1)
3062.89226163166

>  <r_j_2nd_Lowest_Frequency_(cm-1)> (1)
139.903848399852

>  <i_j_Num_Negative_Frequencies> (1)
0

>  <r_j_Zero_Point_Energy_(kcal/mol)> (1)
159.41880110986

>  <r_j_Entropy_(cal/mol/K)_298.15K_1.00E+00atm> (1)
92.3660688004664

>  <r_j_Enthalpy_(kcal/mol)_298.15K_1.00E+00atm> (1)
6.5034829878308

>  <r_j_Free_Energy_(kcal/mol)_298.15K_1.00E+00atm> (1)
-21.0354604250282

>  <r_j_Internal_Energy_(kcal/mol)_298.15K_1.00E+00atm> (1)
5.91099739900353

>  <r_j_Heat_Capacity_(cal/mol/K)_298.15K_1.00E+00atm> (1)
38.1797342553392

>  <r_j_ln(Q)_298.15K_1.00E+00atm> (1)
35.5037503387456

>  <r_j_Total_Internal_Energy_(au)_298.15K_1.00E+00atm> (1)
-353.698284243

>  <r_j_Total_Enthalpy_(au)_298.15K_1.00E+00atm> (1)
-353.697340057107

>  <r_j_Total_Free_Energy_(au)_298.15K_1.00E+00atm> (1)
-353.741226157205

>  <r_lp_tautomer_probability> (1)
1

>  <r_epik_Ionization_Penalty> (1)
  0.0000

>  <r_epik_Ionization_Penalty_Charging> (1)
  0.0000

>  <r_epik_Ionization_Penalty_Neutral> (1)
  0.0000

>  <r_epik_State_Penalty> (1)
  0.0000

>  <r_epik_Charging_Adjusted_Penalty> (1)
0

>  <i_epik_Tot_Q> (1)
0

>  <i_epik_Tot_abs_Q> (1)
0

>  <s_lp_Force_Field> (1)
S-OPLS

>  <r_lp_Energy> (1)
12.9272

>  <b_lp_Chiralities_Consistent> (1)
1

$$$$
