35842_2,7-Dinitro-9-fluorenone
                    3D
 Schrodinger Suite 2021-3.
 26 28  0  0  1  0            999 V2000
   -0.7041    1.2070    0.0000 C   0  0  0  0  0  0
   -2.1015    1.2252    0.0001 C   0  0  0  0  0  0
   -2.7813    0.0113    0.0002 C   0  0  0  0  0  0
   -2.0683   -1.2046    0.0001 C   0  0  0  0  0  0
   -0.6863   -1.2438    0.0001 C   0  0  0  0  0  0
   -0.0243   -0.0117    0.0000 C   0  0  0  0  0  0
    1.4496    0.0042   -0.0002 N   0  3  1  0  0  0
    2.0263   -1.0818   -0.0002 O   0  0  0  0  0  0
    2.0091    1.1004   -0.0002 O   0  5  0  0  0  0
   -3.0437   -2.3452    0.0002 C   0  0  0  0  0  0
   -2.7957   -3.5337    0.0002 O   0  0  0  0  0  0
   -4.3941   -1.6901    0.0002 C   0  0  0  0  0  0
   -4.2283   -0.2906    0.0002 C   0  0  0  0  0  0
   -5.3378    0.5493    0.0001 C   0  0  0  0  0  0
   -6.6112   -0.0275    0.0001 C   0  0  0  0  0  0
   -6.7449   -1.4166    0.0000 C   0  0  0  0  0  0
   -5.6445   -2.2790    0.0001 C   0  0  0  0  0  0
   -8.1001   -1.9959   -0.0002 N   0  3  1  0  0  0
   -8.1904   -3.2222   -0.0002 O   0  0  0  0  0  0
   -9.0539   -1.2183   -0.0003 O   0  5  0  0  0  0
   -0.1299    2.1251   -0.0001 H   0  0  0  0  0  0
   -2.6323    2.1713    0.0001 H   0  0  0  0  0  0
   -0.1375   -2.1774    0.0001 H   0  0  0  0  0  0
   -5.2307    1.6291    0.0001 H   0  0  0  0  0  0
   -7.5054    0.5833    0.0000 H   0  0  0  0  0  0
   -5.7740   -3.3541    0.0000 H   0  0  0  0  0  0
  1  6  1  0  0  0
  1  2  2  0  0  0
  1 21  1  0  0  0
  2  3  1  0  0  0
  2 22  1  0  0  0
  3 13  1  0  0  0
  3  4  2  0  0  0
  4  5  1  0  0  0
  4 10  1  0  0  0
  5  6  2  0  0  0
  5 23  1  0  0  0
  6  7  1  0  0  0
  7  8  2  0  0  0
  7  9  1  0  0  0
 10 11  2  0  0  0
 10 12  1  0  0  0
 12 17  1  0  0  0
 12 13  2  0  0  0
 13 14  1  0  0  0
 14 15  2  0  0  0
 14 24  1  0  0  0
 15 16  1  0  0  0
 15 25  1  0  0  0
 16 17  2  0  0  0
 16 18  1  0  0  0
 17 26  1  0  0  0
 18 19  2  0  0  0
 18 20  1  0  0  0
M  END
>  <i_m_Spin_multiplicity> (1)
1

>  <s_j_Task> (1)
Single Point

>  <s_j_QM_Method> (1)
DFT(b3lyp-d3)

>  <s_j_QM_Basis> (1)
cc-pvtz(-f)

>  <i_j_Number_of_canonical_orbitals> (1)
501

>  <i_j_Geometry_convergence_category> (1)
0

>  <r_j_Gas_Phase_Energy> (1)
-984.768376879065

>  <r_j_Final_Energy> (1)
-984.768376879065

>  <r_j_HOMO> (1)
-0.287249492798783

>  <r_j_LUMO> (1)
-0.14579581594723

>  <r_j_Polarizability> (1)
197.558660061386

>  <r_j_QM_Dipole_(debye)> (1)
4.88769381713832

>  <r_j_QM_Dipole_X_(debye)> (1)
-1.00105285845751

>  <r_j_QM_Dipole_Y_(debye)> (1)
4.78408233489401

>  <r_j_QM_Dipole_Z_(debye)> (1)
0.000487464095656804

>  <r_j_Lowest_Frequency_(cm-1)> (1)
48.31479604

>  <r_j_Highest_Frequency_(cm-1)> (1)
3187.59719862562

>  <r_j_2nd_Lowest_Frequency_(cm-1)> (1)
89.2161470628116

>  <i_j_Num_Negative_Frequencies> (1)
0

>  <r_j_Zero_Point_Energy_(kcal/mol)> (1)
108.787525047344

>  <r_j_Entropy_(cal/mol/K)_298.15K_1.00E+00atm> (1)
118.947178591132

>  <r_j_Enthalpy_(kcal/mol)_298.15K_1.00E+00atm> (1)
9.54092039915878

>  <r_j_Free_Energy_(kcal/mol)_298.15K_1.00E+00atm> (1)
-25.9231808977873

>  <r_j_Internal_Energy_(kcal/mol)_298.15K_1.00E+00atm> (1)
8.94843481033151

>  <r_j_Heat_Capacity_(cal/mol/K)_298.15K_1.00E+00atm> (1)
56.2999527427006

>  <r_j_ln(Q)_298.15K_1.00E+00atm> (1)
43.7532682425202

>  <r_j_Total_Internal_Energy_(au)_298.15K_1.00E+00atm> (1)
-984.580752682959

>  <r_j_Total_Enthalpy_(au)_298.15K_1.00E+00atm> (1)
-984.579808497067

>  <r_j_Total_Free_Energy_(au)_298.15K_1.00E+00atm> (1)
-984.636324140244

>  <r_lp_tautomer_probability> (1)
1

>  <r_epik_Ionization_Penalty> (1)
  0.0000

>  <r_epik_Ionization_Penalty_Charging> (1)
  0.0000

>  <r_epik_Ionization_Penalty_Neutral> (1)
  0.0000

>  <r_epik_State_Penalty> (1)
  0.0000

>  <r_epik_Charging_Adjusted_Penalty> (1)
0

>  <i_epik_Tot_Q> (1)
0

>  <i_epik_Tot_abs_Q> (1)
4

>  <s_lp_Force_Field> (1)
S-OPLS

>  <r_lp_Energy> (1)
22.9585

>  <b_lp_Chiralities_Consistent> (1)
1

$$$$
