359_Phloroglucinol
                    3D
 Schrodinger Suite 2021-3.
 15 15  0  0  1  0            999 V2000
   -0.6997    1.2077    0.0000 C   0  0  0  0  0  0
   -0.0213   -0.0120    0.0000 C   0  0  0  0  0  0
   -0.7096   -1.2289    0.0000 C   0  0  0  0  0  0
   -2.1044   -1.2123    0.0000 C   0  0  0  0  0  0
   -2.8100   -0.0057    0.0000 C   0  0  0  0  0  0
   -2.0929    1.1974    0.0000 C   0  0  0  0  0  0
   -2.7192    2.4116    0.0000 O   0  0  0  0  0  0
   -2.7352   -2.4249    0.0000 O   0  0  0  0  0  0
    1.3430    0.0437    0.0000 O   0  0  0  0  0  0
   -0.1550    2.1431    0.0000 H   0  0  0  0  0  0
   -0.1880   -2.1807    0.0000 H   0  0  0  0  0  0
   -3.8983   -0.0018    0.0000 H   0  0  0  0  0  0
   -3.6757    2.2779   -0.0001 H   0  0  0  0  0  0
   -3.6912   -2.2873    0.0000 H   0  0  0  0  0  0
    1.6958   -0.8555    0.0000 H   0  0  0  0  0  0
  1  6  1  0  0  0
  1  2  2  0  0  0
  1 10  1  0  0  0
  2  3  1  0  0  0
  2  9  1  0  0  0
  3  4  2  0  0  0
  3 11  1  0  0  0
  4  5  1  0  0  0
  4  8  1  0  0  0
  5  6  2  0  0  0
  5 12  1  0  0  0
  6  7  1  0  0  0
  7 13  1  0  0  0
  8 14  1  0  0  0
  9 15  1  0  0  0
M  END
>  <i_m_Spin_multiplicity> (1)
1

>  <s_j_Task> (1)
Single Point

>  <s_j_QM_Method> (1)
DFT(b3lyp-d3)

>  <s_j_QM_Basis> (1)
cc-pvtz(-f)

>  <i_j_Number_of_canonical_orbitals> (1)
256

>  <i_j_Geometry_convergence_category> (1)
3

>  <r_j_Gas_Phase_Energy> (1)
-458.083984407019

>  <r_j_Final_Energy> (1)
-458.083984407019

>  <r_j_HOMO> (1)
-0.223087502523396

>  <r_j_LUMO> (1)
0.00591082821757547

>  <r_j_Polarizability> (1)
78.1092860930391

>  <r_j_QM_Dipole_(debye)> (1)
2.56797193771656

>  <r_j_QM_Dipole_X_(debye)> (1)
-2.2228916551017

>  <r_j_QM_Dipole_Y_(debye)> (1)
-1.28578090631204

>  <r_j_QM_Dipole_Z_(debye)> (1)
-0.000153435150308087

>  <r_j_Lowest_Frequency_(cm-1)> (1)
206.422990030823

>  <r_j_Highest_Frequency_(cm-1)> (1)
3775.26466015305

>  <r_j_2nd_Lowest_Frequency_(cm-1)> (1)
245.871047647015

>  <i_j_Num_Negative_Frequencies> (1)
0

>  <r_j_Zero_Point_Energy_(kcal/mol)> (1)
70.7243893735118

>  <r_j_Entropy_(cal/mol/K)_298.15K_1.00E+00atm> (1)
84.7789606567931

>  <r_j_Enthalpy_(kcal/mol)_298.15K_1.00E+00atm> (1)
5.38767907539066

>  <r_j_Free_Energy_(kcal/mol)_298.15K_1.00E+00atm> (1)
-19.8891680444322

>  <r_j_Internal_Energy_(kcal/mol)_298.15K_1.00E+00atm> (1)
4.79519348656339

>  <r_j_Heat_Capacity_(cal/mol/K)_298.15K_1.00E+00atm> (1)
30.7748285664661

>  <r_j_ln(Q)_298.15K_1.00E+00atm> (1)
33.5690325967243

>  <r_j_Total_Internal_Energy_(au)_298.15K_1.00E+00atm> (1)
-457.963636290424

>  <r_j_Total_Enthalpy_(au)_298.15K_1.00E+00atm> (1)
-457.962692104532

>  <r_j_Total_Free_Energy_(au)_298.15K_1.00E+00atm> (1)
-458.002973324702

>  <r_lp_tautomer_probability> (1)
0.999999955300002

>  <r_epik_Ionization_Penalty> (1)
  0.0205

>  <r_epik_Ionization_Penalty_Charging> (1)
  0.0000

>  <r_epik_Ionization_Penalty_Neutral> (1)
  0.0205

>  <r_epik_State_Penalty> (1)
  0.0164

>  <r_epik_Charging_Adjusted_Penalty> (1)
0.0164071059400236

>  <i_epik_Tot_Q> (1)
0

>  <i_epik_Tot_abs_Q> (1)
0

>  <s_lp_Force_Field> (1)
S-OPLS

>  <r_lp_Energy> (1)
-1.662182

>  <b_lp_Chiralities_Consistent> (1)
1

$$$$
