3608_Hexenal
                    3D
 Schrodinger Suite 2021-3.
 32 33  0  0  1  0            999 V2000
    0.0159    0.7140    0.5690 C   0  0  0  0  0  0
    1.4709    0.2824    0.3049 C   0  0  0  0  0  0
    2.3529    0.7849    1.4934 C   0  0  0  0  0  0
    2.0594    1.8869    1.9726 O   0  0  0  0  0  0
    3.4166    0.0591    1.9028 N   0  5  0  0  0  0
    3.5980   -1.2085    1.4980 C   0  0  0  0  0  0
    4.5728   -1.9142    1.7694 O   0  0  0  0  0  0
    2.5594   -1.8830    0.7102 N   0  0  0  0  0  0
    1.5021   -1.2430    0.1299 C   0  0  0  0  0  0
    0.6440   -1.8298   -0.5393 O   0  0  0  0  0  0
    2.7457   -3.3106    0.4831 C   0  0  0  0  0  0
    2.0197    0.8376   -1.0298 C   0  0  0  0  0  0
    3.3084    1.1837   -1.1693 C   0  0  0  0  0  0
    3.9419    1.6096   -2.4720 C   0  0  0  0  0  0
    3.0888    1.2184   -3.6846 C   0  0  0  0  0  0
    1.6291    1.6056   -3.4326 C   0  0  0  0  0  0
    1.0634    0.8705   -2.2078 C   0  0  0  0  0  0
   -0.0467    1.8033    0.5657 H   0  0  0  0  0  0
   -0.2891    0.3713    1.5624 H   0  0  0  0  0  0
   -0.6650    0.2796   -0.1645 H   0  0  0  0  0  0
    1.8665   -3.6879   -0.0383 H   0  0  0  0  0  0
    2.8801   -3.8234    1.4386 H   0  0  0  0  0  0
    3.6463   -3.4871   -0.1125 H   0  0  0  0  0  0
    3.9654    1.1433   -0.3048 H   0  0  0  0  0  0
    4.1060    2.6999   -2.4696 H   0  0  0  0  0  0
    4.9433    1.1639   -2.5506 H   0  0  0  0  0  0
    3.4718    1.6912   -4.5987 H   0  0  0  0  0  0
    3.1510    0.1321   -3.8338 H   0  0  0  0  0  0
    1.5786    2.6903   -3.2610 H   0  0  0  0  0  0
    1.0082    1.3967   -4.3134 H   0  0  0  0  0  0
    0.7924   -0.1638   -2.4578 H   0  0  0  0  0  0
    0.1250    1.3507   -1.9097 H   0  0  0  0  0  0
  1  2  1  0  0  0
  1 18  1  0  0  0
  1 19  1  0  0  0
  1 20  1  0  0  0
  2  9  1  0  0  0
  2  3  1  0  0  0
  2 12  1  0  0  0
  3  4  2  0  0  0
  3  5  1  0  0  0
  5  6  1  0  0  0
  6  7  2  0  0  0
  6  8  1  0  0  0
  8  9  1  0  0  0
  8 11  1  0  0  0
  9 10  2  0  0  0
 11 21  1  0  0  0
 11 22  1  0  0  0
 11 23  1  0  0  0
 12 17  1  0  0  0
 12 13  2  0  0  0
 13 14  1  0  0  0
 13 24  1  0  0  0
 14 15  1  0  0  0
 14 25  1  0  0  0
 14 26  1  0  0  0
 15 16  1  0  0  0
 15 27  1  0  0  0
 15 28  1  0  0  0
 16 17  1  0  0  0
 16 29  1  0  0  0
 16 30  1  0  0  0
 17 31  1  0  0  0
 17 32  1  0  0  0
M  END
>  <i_m_Spin_multiplicity> (1)
1

>  <s_j_Task> (1)
Single Point

>  <s_j_QM_Method> (1)
DFT(b3lyp-d3)

>  <s_j_QM_Basis> (1)
cc-pvtz(-f)

>  <i_j_Number_of_canonical_orbitals> (1)
521

>  <i_j_Geometry_convergence_category> (1)
3

>  <r_j_Gas_Phase_Energy> (1)
-801.879297691866

>  <r_j_Final_Energy> (1)
-801.879297691866

>  <r_j_HOMO> (1)
-0.0885059039263234

>  <r_j_LUMO> (1)
0.104119065169113

>  <r_j_Polarizability> (1)
160.321009607393

>  <r_j_QM_Dipole_(debye)> (1)
7.86343455324197

>  <r_j_QM_Dipole_X_(debye)> (1)
-2.34204988405771

>  <r_j_QM_Dipole_Y_(debye)> (1)
0.083287988608948

>  <r_j_QM_Dipole_Z_(debye)> (1)
-7.50609541803583

>  <r_j_Lowest_Frequency_(cm-1)> (1)
56.8550076734867

>  <r_j_Highest_Frequency_(cm-1)> (1)
3122.9083935632

>  <r_j_2nd_Lowest_Frequency_(cm-1)> (1)
71.279923197254

>  <i_j_Num_Negative_Frequencies> (1)
0

>  <r_j_Zero_Point_Energy_(kcal/mol)> (1)
162.895123820822

>  <r_j_Entropy_(cal/mol/K)_298.15K_1.00E+00atm> (1)
118.382551931728

>  <r_j_Enthalpy_(kcal/mol)_298.15K_1.00E+00atm> (1)
9.9045652608046

>  <r_j_Free_Energy_(kcal/mol)_298.15K_1.00E+00atm> (1)
-25.3911925976401

>  <r_j_Internal_Energy_(kcal/mol)_298.15K_1.00E+00atm> (1)
9.31207967197732

>  <r_j_Heat_Capacity_(cal/mol/K)_298.15K_1.00E+00atm> (1)
59.158743127454

>  <r_j_ln(Q)_298.15K_1.00E+00atm> (1)
42.8553758546224

>  <r_j_Total_Internal_Energy_(au)_298.15K_1.00E+00atm> (1)
-801.604868043031

>  <r_j_Total_Enthalpy_(au)_298.15K_1.00E+00atm> (1)
-801.603923857139

>  <r_j_Total_Free_Energy_(au)_298.15K_1.00E+00atm> (1)
-801.660171227969

>  <r_epik_Ionization_Penalty> (1)
  1.5361

>  <r_epik_Ionization_Penalty_Charging> (1)
  1.5361

>  <r_epik_Ionization_Penalty_Neutral> (1)
  0.0000

>  <r_epik_State_Penalty> (1)
  1.6291

>  <r_epik_Charging_Adjusted_Penalty> (1)
3.16515

>  <i_epik_Tot_Q> (1)
-1

>  <i_epik_Tot_abs_Q> (1)
1

>  <s_lp_Force_Field> (1)
S-OPLS

>  <r_lp_Energy> (1)
40.7759

>  <b_lp_Chiralities_Consistent> (1)
1

$$$$
