36401_Tetrachlorobiphenyl
                    3D
 Schrodinger Suite 2021-3.
 22 23  0  0  1  0            999 V2000
   -2.8042   -0.0001   -0.0388 C   0  0  0  0  0  0
   -2.1054   -1.2076   -0.0231 C   0  0  0  0  0  0
   -0.7115   -1.2088    0.0095 C   0  0  0  0  0  0
   -0.0068    0.0000    0.0265 C   0  0  0  0  0  0
   -0.7116    1.2088    0.0101 C   0  0  0  0  0  0
   -2.1055    1.2076   -0.0225 C   0  0  0  0  0  0
    1.4861    0.0000    0.0402 C   0  0  0  0  0  0
    2.1783   -0.0002   -1.1707 C   0  0  0  0  0  0
    3.5692   -0.0003   -1.2094 C   0  0  0  0  0  0
    4.3113   -0.0001   -0.0195 C   0  0  0  0  0  0
    3.6283    0.0002    1.2123 C   0  0  0  0  0  0
    2.2225    0.0002    1.2347 C   0  0  0  0  0  0
    1.3644    0.0005    2.7562 Cl  0  0  0  0  0  0
    4.5286    0.0004    2.7019 Cl  0  0  0  0  0  0
    6.0502   -0.0001   -0.0658 Cl  0  0  0  0  0  0
    4.3517   -0.0006   -2.7714 Cl  0  0  0  0  0  0
   -3.8899   -0.0001   -0.0639 H   0  0  0  0  0  0
   -2.6450   -2.1500   -0.0358 H   0  0  0  0  0  0
   -0.1646   -2.1469    0.0251 H   0  0  0  0  0  0
   -0.1647    2.1469    0.0261 H   0  0  0  0  0  0
   -2.6452    2.1499   -0.0347 H   0  0  0  0  0  0
    1.6212   -0.0004   -2.1001 H   0  0  0  0  0  0
  1  6  1  0  0  0
  1  2  2  0  0  0
  1 17  1  0  0  0
  2  3  1  0  0  0
  2 18  1  0  0  0
  3  4  2  0  0  0
  3 19  1  0  0  0
  4  5  1  0  0  0
  4  7  1  0  0  0
  5  6  2  0  0  0
  5 20  1  0  0  0
  6 21  1  0  0  0
  7 12  1  0  0  0
  7  8  2  0  0  0
  8  9  1  0  0  0
  8 22  1  0  0  0
  9 10  2  0  0  0
  9 16  1  0  0  0
 10 11  1  0  0  0
 10 15  1  0  0  0
 11 12  2  0  0  0
 11 14  1  0  0  0
 12 13  1  0  0  0
M  END
>  <i_m_Spin_multiplicity> (1)
1

>  <s_j_Task> (1)
Single Point

>  <s_j_QM_Method> (1)
DFT(b3lyp-d3)

>  <s_j_QM_Basis> (1)
cc-pvtz(-f)

>  <i_j_Number_of_canonical_orbitals> (1)
428

>  <i_j_Geometry_convergence_category> (1)
0

>  <r_j_Gas_Phase_Energy> (1)
-2301.9665261748

>  <r_j_Final_Energy> (1)
-2301.9665261748

>  <r_j_HOMO> (1)
-0.260055010881114

>  <r_j_LUMO> (1)
-0.0553427377206258

>  <r_j_Polarizability> (1)
185.361159501865

>  <r_j_QM_Dipole_(debye)> (1)
2.64387392230116

>  <r_j_QM_Dipole_X_(debye)> (1)
-2.51527314264701

>  <r_j_QM_Dipole_Y_(debye)> (1)
-5.35753406533627e-05

>  <r_j_QM_Dipole_Z_(debye)> (1)
-0.814536881935032

>  <r_j_Lowest_Frequency_(cm-1)> (1)
59.9044528299113

>  <r_j_Highest_Frequency_(cm-1)> (1)
3165.59859313124

>  <r_j_2nd_Lowest_Frequency_(cm-1)> (1)
62.295622496487

>  <i_j_Num_Negative_Frequencies> (1)
0

>  <r_j_Zero_Point_Energy_(kcal/mol)> (1)
89.0997544034261

>  <r_j_Entropy_(cal/mol/K)_298.15K_1.00E+00atm> (1)
117.129265072053

>  <r_j_Enthalpy_(kcal/mol)_298.15K_1.00E+00atm> (1)
9.10699954770569

>  <r_j_Free_Energy_(kcal/mol)_298.15K_1.00E+00atm> (1)
-25.8150908335268

>  <r_j_Internal_Energy_(kcal/mol)_298.15K_1.00E+00atm> (1)
8.51451395887841

>  <r_j_Heat_Capacity_(cal/mol/K)_298.15K_1.00E+00atm> (1)
51.2885872241505

>  <r_j_ln(Q)_298.15K_1.00E+00atm> (1)
43.5708333170153

>  <r_j_Total_Internal_Energy_(au)_298.15K_1.00E+00atm> (1)
-2301.8109679354

>  <r_j_Total_Enthalpy_(au)_298.15K_1.00E+00atm> (1)
-2301.81002374951

>  <r_j_Total_Free_Energy_(au)_298.15K_1.00E+00atm> (1)
-2301.8656756433

>  <r_lp_tautomer_probability> (1)
1

>  <r_epik_Ionization_Penalty> (1)
  0.0000

>  <r_epik_Ionization_Penalty_Charging> (1)
  0.0000

>  <r_epik_Ionization_Penalty_Neutral> (1)
  0.0000

>  <r_epik_State_Penalty> (1)
  0.0000

>  <r_epik_Charging_Adjusted_Penalty> (1)
0

>  <i_epik_Tot_Q> (1)
0

>  <i_epik_Tot_abs_Q> (1)
0

>  <s_lp_Force_Field> (1)
S-OPLS

>  <r_lp_Energy> (1)
28.641301

>  <b_lp_Chiralities_Consistent> (1)
1

$$$$
