3681305_Hydrogen phosphate
                    3D
 Schrodinger Suite 2021-3.
  6  5  0  0  1  0            999 V2000
    2.8660    0.0000    0.0000 P   0  0  1  0  0  0
    3.7320    0.5000    0.0000 O   0  0  0  0  0  0
    2.0000   -0.5000    0.0000 O   0  5  0  0  0  0
    2.3660    0.8660    0.0000 O   0  5  0  0  0  0
    3.3660   -0.8660    0.0000 O   0  0  0  0  0  0
    4.2690    0.1900    0.0000 H   0  0  0  0  0  0
  1  2  1  0  0  0
  1  3  1  0  0  0
  1  4  1  0  0  0
  1  5  2  0  0  0
  2  6  1  0  0  0
M  END
>  <i_m_Spin_multiplicity> (1)
1

>  <s_j_Task> (1)
Single Point

>  <s_j_QM_Method> (1)
DFT(b3lyp-d3)

>  <s_j_QM_Basis> (1)
cc-pvtz(-f)

>  <i_j_Number_of_canonical_orbitals> (1)
127

>  <r_j_Gas_Phase_Energy> (1)
-638.030307868358

>  <r_j_Final_Energy> (1)
-638.030307868358

>  <r_j_Polarizability> (1)
94.1678367792373

>  <r_j_QM_Dipole_(debye)> (1)
4.71575278533492

>  <r_j_QM_Dipole_X_(debye)> (1)
-4.71374758272388

>  <r_j_QM_Dipole_Y_(debye)> (1)
0.137506577141511

>  <r_j_QM_Dipole_Z_(debye)> (1)
-1.28501178904494e-06

>  <r_j_Zero_Point_Energy_(kcal/mol)> (1)
43.7637847086224

>  <r_j_Entropy_(cal/mol/K)_298.15K_1.00E+00atm> (1)
62.8415723162784

>  <r_j_Enthalpy_(kcal/mol)_298.15K_1.00E+00atm> (1)
2.48819069940772

>  <r_j_Free_Energy_(kcal/mol)_298.15K_1.00E+00atm> (1)
-16.2480240866907

>  <r_j_Internal_Energy_(kcal/mol)_298.15K_1.00E+00atm> (1)
1.89570511058045

>  <r_j_Heat_Capacity_(cal/mol/K)_298.15K_1.00E+00atm> (1)
7.09711147184081

>  <r_j_ln(Q)_298.15K_1.00E+00atm> (1)
27.4234924748987

>  <r_j_Total_Internal_Energy_(au)_298.15K_1.00E+00atm> (1)
-637.957544839269

>  <r_j_Total_Enthalpy_(au)_298.15K_1.00E+00atm> (1)
-637.956600653377

>  <r_j_Total_Free_Energy_(au)_298.15K_1.00E+00atm> (1)
-637.986458712389

>  <r_j_HOMO> (1)
0.392484868437474

>  <r_j_LUMO> (1)
0.469580488875768

>  <r_j_Lowest_Frequency_(cm-1)> (1)
-5293.66850708107

>  <r_j_Highest_Frequency_(cm-1)> (1)
11929.3158647421

>  <r_j_2nd_Lowest_Frequency_(cm-1)> (1)
-4958.93393088778

>  <i_j_Num_Negative_Frequencies> (1)
6

$$$$
