37248_2,2',5,5'-Tetrachlorobiphenyl
                    3D
 Schrodinger Suite 2021-3.
 22 23  0  0  1  0            999 V2000
   -2.8100    0.0048   -0.0317 C   0  0  0  0  0  0
   -2.1361   -1.2032    0.1281 C   0  0  0  0  0  0
   -0.7427   -1.2275    0.1575 C   0  0  0  0  0  0
    0.0051   -0.0475    0.0349 C   0  0  0  0  0  0
   -0.6823    1.1603   -0.1343 C   0  0  0  0  0  0
   -2.0737    1.1796   -0.1653 C   0  0  0  0  0  0
   -2.9101    2.7098   -0.3749 Cl  0  0  0  0  0  0
    1.4949   -0.0349    0.0475 C   0  0  0  0  0  0
    2.2428   -0.1575    1.2275 C   0  0  0  0  0  0
    3.6362   -0.1281    1.2032 C   0  0  0  0  0  0
    4.3100    0.0318   -0.0048 C   0  0  0  0  0  0
    3.5736    0.1653   -1.1796 C   0  0  0  0  0  0
    2.1822    0.1343   -1.1603 C   0  0  0  0  0  0
    4.4100    0.3748   -2.7098 Cl  0  0  0  0  0  0
    1.4343   -0.3298    2.7755 Cl  0  0  0  0  0  0
    0.0658   -2.7755    0.3297 Cl  0  0  0  0  0  0
   -3.8932    0.0326   -0.0557 H   0  0  0  0  0  0
   -2.6900   -2.1299    0.2254 H   0  0  0  0  0  0
   -0.1219    2.0831   -0.2323 H   0  0  0  0  0  0
    4.1901   -0.2254    2.1298 H   0  0  0  0  0  0
    5.3933    0.0557   -0.0326 H   0  0  0  0  0  0
    1.6219    0.2324   -2.0830 H   0  0  0  0  0  0
  1  6  1  0  0  0
  1  2  2  0  0  0
  1 17  1  0  0  0
  2  3  1  0  0  0
  2 18  1  0  0  0
  3  4  2  0  0  0
  3 16  1  0  0  0
  4  5  1  0  0  0
  4  8  1  0  0  0
  5  6  2  0  0  0
  5 19  1  0  0  0
  6  7  1  0  0  0
  8 13  1  0  0  0
  8  9  2  0  0  0
  9 10  1  0  0  0
  9 15  1  0  0  0
 10 11  2  0  0  0
 10 20  1  0  0  0
 11 12  1  0  0  0
 11 21  1  0  0  0
 12 13  2  0  0  0
 12 14  1  0  0  0
 13 22  1  0  0  0
M  END
>  <i_m_Spin_multiplicity> (1)
1

>  <s_j_Task> (1)
Single Point

>  <s_j_QM_Method> (1)
DFT(b3lyp-d3)

>  <s_j_QM_Basis> (1)
cc-pvtz(-f)

>  <i_j_Number_of_canonical_orbitals> (1)
429

>  <i_j_Geometry_convergence_category> (1)
1

>  <r_j_Gas_Phase_Energy> (1)
-2301.98316700182

>  <r_j_Final_Energy> (1)
-2301.98316700182

>  <r_j_HOMO> (1)
-0.25450794079778

>  <r_j_LUMO> (1)
-0.0522562752890081

>  <r_j_Polarizability> (1)
184.670669434848

>  <r_j_QM_Dipole_(debye)> (1)
0.286904908363234

>  <r_j_QM_Dipole_X_(debye)> (1)
3.24845056673838e-06

>  <r_j_QM_Dipole_Y_(debye)> (1)
-0.202885543923806

>  <r_j_QM_Dipole_Z_(debye)> (1)
0.202859267718053

>  <r_j_Lowest_Frequency_(cm-1)> (1)
39.7092420745933

>  <r_j_Highest_Frequency_(cm-1)> (1)
3170.6097062782

>  <r_j_2nd_Lowest_Frequency_(cm-1)> (1)
76.8468520332067

>  <i_j_Num_Negative_Frequencies> (1)
0

>  <r_j_Zero_Point_Energy_(kcal/mol)> (1)
89.2827225213166

>  <r_j_Entropy_(cal/mol/K)_298.15K_1.00E+00atm> (1)
117.08663818243

>  <r_j_Enthalpy_(kcal/mol)_298.15K_1.00E+00atm> (1)
9.08047943389069

>  <r_j_Free_Energy_(kcal/mol)_298.15K_1.00E+00atm> (1)
-25.8289017402008

>  <r_j_Internal_Energy_(kcal/mol)_298.15K_1.00E+00atm> (1)
8.48799384506341

>  <r_j_Heat_Capacity_(cal/mol/K)_298.15K_1.00E+00atm> (1)
51.3683217827659

>  <r_j_ln(Q)_298.15K_1.00E+00atm> (1)
43.5941434311081

>  <r_j_Total_Internal_Energy_(au)_298.15K_1.00E+00atm> (1)
-2301.82735944665

>  <r_j_Total_Enthalpy_(au)_298.15K_1.00E+00atm> (1)
-2301.82641526076

>  <r_j_Total_Free_Energy_(au)_298.15K_1.00E+00atm> (1)
-2301.88204690114

>  <r_lp_tautomer_probability> (1)
1

>  <r_epik_Ionization_Penalty> (1)
  0.0000

>  <r_epik_Ionization_Penalty_Charging> (1)
  0.0000

>  <r_epik_Ionization_Penalty_Neutral> (1)
  0.0000

>  <r_epik_State_Penalty> (1)
  0.0000

>  <r_epik_Charging_Adjusted_Penalty> (1)
0

>  <i_epik_Tot_Q> (1)
0

>  <i_epik_Tot_abs_Q> (1)
0

>  <s_lp_Force_Field> (1)
S-OPLS

>  <r_lp_Energy> (1)
23.3844

>  <b_lp_Chiralities_Consistent> (1)
1

$$$$
