37982_n-Hentriacontanoic acid
                    3D
 Schrodinger Suite 2021-3.
 94 93  0  0  1  0            999 V2000
   -8.2920   12.4014   -2.4622 C   0  0  0  0  0  0
   -7.0361   12.0404   -1.6635 C   0  0  0  0  0  0
   -6.8641   10.5300   -1.4606 C   0  0  0  0  0  0
   -5.6087   10.1654   -0.6605 C   0  0  0  0  0  0
   -5.4175    8.6568   -0.4646 C   0  0  0  0  0  0
   -4.1518    8.3089    0.3271 C   0  0  0  0  0  0
   -3.9256    6.8026    0.5024 C   0  0  0  0  0  0
   -2.6371    6.4799    1.2714 C   0  0  0  0  0  0
   -2.3080    4.9827    1.3679 C   0  0  0  0  0  0
   -3.2667    4.1685    2.2517 C   0  0  0  0  0  0
   -2.8717    2.6861    2.3673 C   0  0  0  0  0  0
   -3.1539    1.8672    1.0974 C   0  0  0  0  0  0
   -2.5789    0.4410    1.1204 C   0  0  0  0  0  0
   -1.0467    0.4024    1.0357 C   0  0  0  0  0  0
   -0.4548   -1.0051    0.8925 C   0  0  0  0  0  0
    1.0730   -0.9794    0.7604 C   0  0  0  0  0  0
    1.7069   -2.3535    0.5075 C   0  0  0  0  0  0
    3.2430   -2.3251    0.4223 C   0  0  0  0  0  0
    3.7901   -1.4601   -0.7213 C   0  0  0  0  0  0
    5.3174   -1.4913   -0.8559 C   0  0  0  0  0  0
    5.8297   -0.5344   -1.9392 C   0  0  0  0  0  0
    7.3542   -0.5133   -2.0981 C   0  0  0  0  0  0
    7.8287    0.5218   -3.1255 C   0  0  0  0  0  0
    9.3500    0.5738   -3.3063 C   0  0  0  0  0  0
    9.7966    1.6713   -4.2821 C   0  0  0  0  0  0
   11.3188    1.7899   -4.4573 C   0  0  0  0  0  0
   11.9802    0.6001   -5.1648 C   0  0  0  0  0  0
   13.4898    0.7816   -5.3758 C   0  0  0  0  0  0
   14.1702   -0.3883   -6.1022 C   0  0  0  0  0  0
   13.7081   -0.6226   -7.5420 C   0  0  0  0  0  0
   14.6703   -1.5621   -8.3773 C   0  0  0  0  0  0
   14.1225   -2.1446   -9.3438 O   0  0  0  0  0  0
   15.8700   -1.5852   -7.9971 O   0  5  0  0  0  0
   -8.3885   13.4843   -2.5946 H   0  0  0  0  0  0
   -9.1970   12.0449   -1.9565 H   0  0  0  0  0  0
   -8.2702   11.9444   -3.4583 H   0  0  0  0  0  0
   -6.1486   12.4386   -2.1741 H   0  0  0  0  0  0
   -7.0685   12.5351   -0.6830 H   0  0  0  0  0  0
   -7.7520   10.1279   -0.9515 H   0  0  0  0  0  0
   -6.8281   10.0343   -2.4415 H   0  0  0  0  0  0
   -4.7245   10.5782   -1.1674 H   0  0  0  0  0  0
   -5.6492   10.6570    0.3223 H   0  0  0  0  0  0
   -6.2966    8.2396    0.0473 H   0  0  0  0  0  0
   -5.3780    8.1652   -1.4473 H   0  0  0  0  0  0
   -3.2793    8.7473   -0.1785 H   0  0  0  0  0  0
   -4.1984    8.7876    1.3160 H   0  0  0  0  0  0
   -4.7919    6.3639    1.0150 H   0  0  0  0  0  0
   -3.8835    6.3244   -0.4870 H   0  0  0  0  0  0
   -1.8000    6.9925    0.7780 H   0  0  0  0  0  0
   -2.6995    6.9075    2.2827 H   0  0  0  0  0  0
   -2.2832    4.5607    0.3545 H   0  0  0  0  0  0
   -1.2912    4.8671    1.7673 H   0  0  0  0  0  0
   -3.2835    4.6198    3.2533 H   0  0  0  0  0  0
   -4.2928    4.2415    1.8667 H   0  0  0  0  0  0
   -1.8062    2.6278    2.6249 H   0  0  0  0  0  0
   -3.4107    2.2243    3.2055 H   0  0  0  0  0  0
   -4.2411    1.8257    0.9459 H   0  0  0  0  0  0
   -2.7488    2.3881    0.2197 H   0  0  0  0  0  0
   -2.9146   -0.0821    2.0274 H   0  0  0  0  0  0
   -2.9924   -0.1232    0.2734 H   0  0  0  0  0  0
   -0.7269    1.0088    0.1756 H   0  0  0  0  0  0
   -0.6089    0.8833    1.9202 H   0  0  0  0  0  0
   -0.7455   -1.6225    1.7545 H   0  0  0  0  0  0
   -0.8887   -1.4937    0.0081 H   0  0  0  0  0  0
    1.3370   -0.2987   -0.0587 H   0  0  0  0  0  0
    1.5099   -0.5406    1.6695 H   0  0  0  0  0  0
    1.4018   -3.0431    1.3066 H   0  0  0  0  0  0
    1.3007   -2.7702   -0.4256 H   0  0  0  0  0  0
    3.6525   -1.9623    1.3763 H   0  0  0  0  0  0
    3.6140   -3.3522    0.3043 H   0  0  0  0  0  0
    3.3339   -1.7817   -1.6691 H   0  0  0  0  0  0
    3.4775   -0.4179   -0.5760 H   0  0  0  0  0  0
    5.7735   -1.2249    0.1086 H   0  0  0  0  0  0
    5.6499   -2.5155   -1.0763 H   0  0  0  0  0  0
    5.3679   -0.7954   -2.9024 H   0  0  0  0  0  0
    5.4811    0.4828   -1.7067 H   0  0  0  0  0  0
    7.8192   -0.2980   -1.1250 H   0  0  0  0  0  0
    7.7088   -1.5121   -2.3893 H   0  0  0  0  0  0
    7.3552    0.3136   -4.0959 H   0  0  0  0  0  0
    7.4663    1.5157   -2.8225 H   0  0  0  0  0  0
    9.8278    0.7440   -2.3300 H   0  0  0  0  0  0
    9.7072   -0.4037   -3.6533 H   0  0  0  0  0  0
    9.3334    1.4907   -5.2631 H   0  0  0  0  0  0
    9.3952    2.6332   -3.9298 H   0  0  0  0  0  0
   11.5366    2.7017   -5.0309 H   0  0  0  0  0  0
   11.7848    1.9381   -3.4710 H   0  0  0  0  0  0
   11.8126   -0.3228   -4.5920 H   0  0  0  0  0  0
   11.4951    0.4443   -6.1371 H   0  0  0  0  0  0
   13.6561    1.7066   -5.9500 H   0  0  0  0  0  0
   13.9629    0.9450   -4.3936 H   0  0  0  0  0  0
   15.2538   -0.2340   -6.1481 H   0  0  0  0  0  0
   14.0274   -1.3087   -5.5151 H   0  0  0  0  0  0
   12.6951   -1.0402   -7.5930 H   0  0  0  0  0  0
   13.6671    0.3458   -8.0691 H   0  0  0  0  0  0
  1  2  1  0  0  0
  1 34  1  0  0  0
  1 35  1  0  0  0
  1 36  1  0  0  0
  2  3  1  0  0  0
  2 37  1  0  0  0
  2 38  1  0  0  0
  3  4  1  0  0  0
  3 39  1  0  0  0
  3 40  1  0  0  0
  4  5  1  0  0  0
  4 41  1  0  0  0
  4 42  1  0  0  0
  5  6  1  0  0  0
  5 43  1  0  0  0
  5 44  1  0  0  0
  6  7  1  0  0  0
  6 45  1  0  0  0
  6 46  1  0  0  0
  7  8  1  0  0  0
  7 47  1  0  0  0
  7 48  1  0  0  0
  8  9  1  0  0  0
  8 49  1  0  0  0
  8 50  1  0  0  0
  9 10  1  0  0  0
  9 51  1  0  0  0
  9 52  1  0  0  0
 10 11  1  0  0  0
 10 53  1  0  0  0
 10 54  1  0  0  0
 11 12  1  0  0  0
 11 55  1  0  0  0
 11 56  1  0  0  0
 12 13  1  0  0  0
 12 57  1  0  0  0
 12 58  1  0  0  0
 13 14  1  0  0  0
 13 59  1  0  0  0
 13 60  1  0  0  0
 14 15  1  0  0  0
 14 61  1  0  0  0
 14 62  1  0  0  0
 15 16  1  0  0  0
 15 63  1  0  0  0
 15 64  1  0  0  0
 16 17  1  0  0  0
 16 65  1  0  0  0
 16 66  1  0  0  0
 17 18  1  0  0  0
 17 67  1  0  0  0
 17 68  1  0  0  0
 18 19  1  0  0  0
 18 69  1  0  0  0
 18 70  1  0  0  0
 19 20  1  0  0  0
 19 71  1  0  0  0
 19 72  1  0  0  0
 20 21  1  0  0  0
 20 73  1  0  0  0
 20 74  1  0  0  0
 21 22  1  0  0  0
 21 75  1  0  0  0
 21 76  1  0  0  0
 22 23  1  0  0  0
 22 77  1  0  0  0
 22 78  1  0  0  0
 23 24  1  0  0  0
 23 79  1  0  0  0
 23 80  1  0  0  0
 24 25  1  0  0  0
 24 81  1  0  0  0
 24 82  1  0  0  0
 25 26  1  0  0  0
 25 83  1  0  0  0
 25 84  1  0  0  0
 26 27  1  0  0  0
 26 85  1  0  0  0
 26 86  1  0  0  0
 27 28  1  0  0  0
 27 87  1  0  0  0
 27 88  1  0  0  0
 28 29  1  0  0  0
 28 89  1  0  0  0
 28 90  1  0  0  0
 29 30  1  0  0  0
 29 91  1  0  0  0
 29 92  1  0  0  0
 30 31  1  0  0  0
 30 93  1  0  0  0
 30 94  1  0  0  0
 31 32  2  0  0  0
 31 33  1  0  0  0
M  CHG  1  33  -1
M  END
> <i_m_Spin_multiplicity>
1

> <s_j_Task>
Single Point

> <s_j_QM_Method>
DFT(b3lyp-d3)

> <s_j_QM_Basis>
6-31g**

> <i_j_Number_of_canonical_orbitals>
800

> <i_j_Geometry_convergence_category>
4

> <r_j_Gas_Phase_Energy>
-1368.76386783785

> <r_j_Final_Energy>
-1368.76386783785

> <r_j_HOMO>
-0.00611511375889995

> <r_j_LUMO>
0.11337668132414

> <r_j_Polarizability>
350.318544743154

> <r_j_QM_Dipole_(debye)>
65.0985338173209

> <r_j_QM_Dipole_X_(debye)>
-54.4554094329651

> <r_j_QM_Dipole_Y_(debye)>
19.2018447164702

> <r_j_QM_Dipole_Z_(debye)>
30.0618803160677

> <r_j_Lowest_Frequency_(cm-1)>
-16.6412062491624

> <r_j_Highest_Frequency_(cm-1)>
3105.49757792706

> <r_j_2nd_Lowest_Frequency_(cm-1)>
6.78497933321497

> <i_j_Num_Negative_Frequencies>
1

> <r_j_Zero_Point_Energy_(kcal/mol)>
552.439733637939

> <r_j_Entropy_(cal/mol/K)_298.15K_1.00E+00atm>
232.042567394465

> <r_j_Enthalpy_(kcal/mol)_298.15K_1.00E+00atm>
25.33767655914

> <r_j_Free_Energy_(kcal/mol)_298.15K_1.00E+00atm>
-43.8458149095197

> <r_j_Internal_Energy_(kcal/mol)_298.15K_1.00E+00atm>
24.7451909703128

> <r_j_Heat_Capacity_(cal/mol/K)_298.15K_1.00E+00atm>
149.394218485646

> <r_j_ln(Q)_298.15K_1.00E+00atm>
74.003175328374

> <r_j_Total_Internal_Energy_(au)_298.15K_1.00E+00atm>
-1367.84406510625

> <r_j_Total_Enthalpy_(au)_298.15K_1.00E+00atm>
-1367.84312092036

> <r_j_Total_Free_Energy_(au)_298.15K_1.00E+00atm>
-1367.95337183254

> <r_epik_Ionization_Penalty>
  0.0049

> <r_epik_Ionization_Penalty_Charging>
  0.0049

> <r_epik_Ionization_Penalty_Neutral>
  0.0000

> <r_epik_State_Penalty>
  0.0035

> <r_epik_Charging_Adjusted_Penalty>
0.00839777765143097

> <i_epik_Tot_Q>
-1

> <i_epik_Tot_abs_Q>
1

> <s_lp_Force_Field>
S-OPLS

> <r_lp_Energy>
20.943194

> <b_lp_Chiralities_Consistent>
1

$$$$
