38032_2,2',3-Trichlorobiphenyl
                    3D
 Schrodinger Suite 2021-3.
 22 23  0  0  1  0            999 V2000
   -2.0846    1.2523   -0.1873 C   0  0  0  0  0  0
   -2.8031    0.0628   -0.0718 C   0  0  0  0  0  0
   -2.1304   -1.1499    0.0675 C   0  0  0  0  0  0
   -0.7370   -1.1634    0.0959 C   0  0  0  0  0  0
    0.0077    0.0197   -0.0082 C   0  0  0  0  0  0
   -0.6923    1.2240   -0.1568 C   0  0  0  0  0  0
    1.4984    0.0345    0.0007 C   0  0  0  0  0  0
    2.2333   -0.0596    1.1956 C   0  0  0  0  0  0
    3.6346   -0.0241    1.1586 C   0  0  0  0  0  0
    4.3030    0.1109   -0.0588 C   0  0  0  0  0  0
    3.5772    0.2146   -1.2409 C   0  0  0  0  0  0
    2.1858    0.1779   -1.2082 C   0  0  0  0  0  0
    4.5917   -0.1377    2.6203 Cl  0  0  0  0  0  0
    1.3842   -0.2025    2.7167 Cl  0  0  0  0  0  0
    0.0833   -2.7115    0.2513 Cl  0  0  0  0  0  0
   -2.6046    2.1986   -0.2981 H   0  0  0  0  0  0
   -3.8886    0.0729   -0.0920 H   0  0  0  0  0  0
   -2.6752   -2.0835    0.1513 H   0  0  0  0  0  0
   -0.1234    2.1451   -0.2387 H   0  0  0  0  0  0
    5.3868    0.1356   -0.0639 H   0  0  0  0  0  0
    4.0992    0.3217   -2.1862 H   0  0  0  0  0  0
    1.6108    0.2515   -2.1256 H   0  0  0  0  0  0
  1  6  1  0  0  0
  1  2  2  0  0  0
  1 16  1  0  0  0
  2  3  1  0  0  0
  2 17  1  0  0  0
  3  4  2  0  0  0
  3 18  1  0  0  0
  4  5  1  0  0  0
  4 15  1  0  0  0
  5  6  2  0  0  0
  5  7  1  0  0  0
  6 19  1  0  0  0
  7 12  1  0  0  0
  7  8  2  0  0  0
  8  9  1  0  0  0
  8 14  1  0  0  0
  9 10  2  0  0  0
  9 13  1  0  0  0
 10 11  1  0  0  0
 10 20  1  0  0  0
 11 12  2  0  0  0
 11 21  1  0  0  0
 12 22  1  0  0  0
M  END
>  <i_m_Spin_multiplicity> (1)
1

>  <s_j_Task> (1)
Single Point

>  <s_j_QM_Method> (1)
DFT(b3lyp-d3)

>  <s_j_QM_Basis> (1)
cc-pvtz(-f)

>  <i_j_Number_of_canonical_orbitals> (1)
410

>  <i_j_Geometry_convergence_category> (1)
0

>  <r_j_Gas_Phase_Energy> (1)
-1842.34838251724

>  <r_j_Final_Energy> (1)
-1842.34838251724

>  <r_j_HOMO> (1)
-0.259277888599628

>  <r_j_LUMO> (1)
-0.0436565987721279

>  <r_j_Polarizability> (1)
167.822605968516

>  <r_j_QM_Dipole_(debye)> (1)
3.12214831447184

>  <r_j_QM_Dipole_X_(debye)> (1)
-1.07469600555229

>  <r_j_QM_Dipole_Y_(debye)> (1)
1.54760198561502

>  <r_j_QM_Dipole_Z_(debye)> (1)
-2.48953141922928

>  <r_j_Lowest_Frequency_(cm-1)> (1)
50.6100577083329

>  <r_j_Highest_Frequency_(cm-1)> (1)
3165.21080916822

>  <r_j_2nd_Lowest_Frequency_(cm-1)> (1)
63.3351372096628

>  <i_j_Num_Negative_Frequencies> (1)
0

>  <r_j_Zero_Point_Energy_(kcal/mol)> (1)
95.3136459727848

>  <r_j_Entropy_(cal/mol/K)_298.15K_1.00E+00atm> (1)
110.081770608595

>  <r_j_Enthalpy_(kcal/mol)_298.15K_1.00E+00atm> (1)
8.27448758793051

>  <r_j_Free_Energy_(kcal/mol)_298.15K_1.00E+00atm> (1)
-24.5463923190222

>  <r_j_Internal_Energy_(kcal/mol)_298.15K_1.00E+00atm> (1)
7.68200199910324

>  <r_j_Heat_Capacity_(cal/mol/K)_298.15K_1.00E+00atm> (1)
47.4234990507746

>  <r_j_ln(Q)_298.15K_1.00E+00atm> (1)
41.4295179189212

>  <r_j_Total_Internal_Energy_(au)_298.15K_1.00E+00atm> (1)
-1842.1842485035

>  <r_j_Total_Enthalpy_(au)_298.15K_1.00E+00atm> (1)
-1842.18330431761

>  <r_j_Total_Free_Energy_(au)_298.15K_1.00E+00atm> (1)
-1842.23560771935

>  <r_lp_tautomer_probability> (1)
1

>  <r_epik_Ionization_Penalty> (1)
  0.0000

>  <r_epik_Ionization_Penalty_Charging> (1)
  0.0000

>  <r_epik_Ionization_Penalty_Neutral> (1)
  0.0000

>  <r_epik_State_Penalty> (1)
  0.0000

>  <r_epik_Charging_Adjusted_Penalty> (1)
0

>  <i_epik_Tot_Q> (1)
0

>  <i_epik_Tot_abs_Q> (1)
0

>  <s_lp_Force_Field> (1)
S-OPLS

>  <r_lp_Energy> (1)
26.5608

>  <b_lp_Chiralities_Consistent> (1)
1

$$$$
