38078_Glyphosate
                    3D
 Schrodinger Suite 2021-3.
 16 15  0  0  1  0            999 V2000
    0.0485   -0.0102   -0.3238 C   0  0  0  0  0  0
   -0.5887    1.3468    0.1459 C   0  0  0  0  0  0
   -1.7026    1.6149   -0.3759 O   0  0  0  0  0  0
    0.0511    1.9791    1.0267 O   0  5  0  0  0  0
    1.4856   -0.1101   -0.0732 N   0  3  1  0  0  0
    1.9931   -1.4812    0.0550 C   0  0  0  0  0  0
    3.8585   -1.5149    0.1590 P   0  0  1  0  0  0
    4.3620   -2.8787   -0.2628 O   0  0  0  0  0  0
    4.1192   -0.4365   -1.1050 O   0  5  0  0  0  0
    4.2856   -0.8927    1.4716 O   0  5  0  0  0  0
   -0.5136   -0.8100    0.2055 H   0  0  0  0  0  0
   -0.1662   -0.1516   -1.3925 H   0  0  0  0  0  0
    3.3289    0.1408   -1.0524 H   0  0  0  0  0  0
    1.5559   -2.0321    0.9118 H   0  0  0  0  0  0
    1.7091   -2.0345   -0.8502 H   0  0  0  0  0  0
    1.6650    0.4324    0.7730 H   0  0  0  0  0  0
  1  2  1  0  0  0
  1  5  1  0  0  0
  1 11  1  0  0  0
  1 12  1  0  0  0
  2  3  2  0  0  0
  2  4  1  0  0  0
  5  6  1  0  0  0
  5 13  1  0  0  0
  5 16  1  0  0  0
  6  7  1  0  0  0
  6 14  1  0  0  0
  6 15  1  0  0  0
  7  8  2  0  0  0
  7  9  1  0  0  0
  7 10  1  0  0  0
M  END
>  <i_m_Spin_multiplicity> (1)
1

>  <s_j_Task> (1)
Single Point

>  <s_j_QM_Method> (1)
DFT(b3lyp-d3)

>  <s_j_QM_Basis> (1)
cc-pvtz(-f)

>  <i_j_Number_of_canonical_orbitals> (1)
288

>  <i_j_Geometry_convergence_category> (1)
3

>  <r_j_Gas_Phase_Energy> (1)
-890.512453615658

>  <r_j_Final_Energy> (1)
-890.512453615658

>  <r_j_HOMO> (1)
0.0526113985645678

>  <r_j_LUMO> (1)
0.277809508795032

>  <r_j_Polarizability> (1)
87.8433513159483

>  <r_j_QM_Dipole_(debye)> (1)
3.04559840963566

>  <r_j_QM_Dipole_X_(debye)> (1)
0.28523587183596

>  <r_j_QM_Dipole_Y_(debye)> (1)
-2.5476596210116

>  <r_j_QM_Dipole_Z_(debye)> (1)
-1.64430551469618

>  <r_j_Lowest_Frequency_(cm-1)> (1)
72.8096371111143

>  <r_j_Highest_Frequency_(cm-1)> (1)
3523.64814393147

>  <r_j_2nd_Lowest_Frequency_(cm-1)> (1)
84.2770774213752

>  <i_j_Num_Negative_Frequencies> (1)
0

>  <r_j_Zero_Point_Energy_(kcal/mol)> (1)
67.9151441060604

>  <r_j_Entropy_(cal/mol/K)_298.15K_1.00E+00atm> (1)
99.2408082490441

>  <r_j_Enthalpy_(kcal/mol)_298.15K_1.00E+00atm> (1)
6.90922809720814

>  <r_j_Free_Energy_(kcal/mol)_298.15K_1.00E+00atm> (1)
-22.6794188822443

>  <r_j_Internal_Energy_(kcal/mol)_298.15K_1.00E+00atm> (1)
6.31674250838087

>  <r_j_Heat_Capacity_(cal/mol/K)_298.15K_1.00E+00atm> (1)
36.22566693443

>  <r_j_ln(Q)_298.15K_1.00E+00atm> (1)
38.2784312562512

>  <r_j_Total_Internal_Energy_(au)_298.15K_1.00E+00atm> (1)
-890.394157573664

>  <r_j_Total_Enthalpy_(au)_298.15K_1.00E+00atm> (1)
-890.393213387772

>  <r_j_Total_Free_Energy_(au)_298.15K_1.00E+00atm> (1)
-890.440365898442

>  <r_epik_Ionization_Penalty> (1)
  0.0859

>  <r_epik_Ionization_Penalty_Charging> (1)
  0.0859

>  <r_epik_Ionization_Penalty_Neutral> (1)
  0.0000

>  <r_epik_State_Penalty> (1)
  0.0765

>  <r_epik_Charging_Adjusted_Penalty> (1)
0.162417033797854

>  <i_epik_Tot_Q> (1)
-2

>  <i_epik_Tot_abs_Q> (1)
4

>  <s_lp_Force_Field> (1)
S-OPLS

>  <r_lp_Energy> (1)
-5.23681

>  <b_lp_Chiralities_Consistent> (1)
1

$$$$
