38200_1,2,3,4,6,7,8,9-Octachlorodibenzofuran
                    3D
 Schrodinger Suite 2021-3.
 21 23  0  0  1  0            999 V2000
   -0.5235    3.9396   -0.0473 C   0  0  0  0  0  0
    0.7226    3.2783   -0.0824 C   0  0  0  0  0  0
    0.9096    1.9022   -0.1071 C   0  0  0  0  0  0
   -0.2360    1.1032   -0.0963 C   0  0  0  0  0  0
   -1.5140    1.7086   -0.0614 C   0  0  0  0  0  0
   -1.6684    3.1089   -0.0368 C   0  0  0  0  0  0
   -3.2818    3.7443    0.0057 Cl  0  0  0  0  0  0
   -2.9200    0.6800   -0.0488 Cl  0  0  0  0  0  0
   -0.0711   -0.6240   -0.1260 Cl  0  0  0  0  0  0
    2.5208    1.2642   -0.1491 Cl  0  0  0  0  0  0
    1.7732    4.1413   -0.0904 O   0  0  0  0  0  0
    1.2382    5.3908   -0.0605 C   0  0  0  0  0  0
   -0.1727    5.3772   -0.0324 C   0  0  0  0  0  0
   -0.8067    6.6415   -0.0007 C   0  0  0  0  0  0
   -0.0247    7.8135    0.0017 C   0  0  0  0  0  0
    1.3887    7.7630   -0.0271 C   0  0  0  0  0  0
    2.0379    6.5266   -0.0590 C   0  0  0  0  0  0
    3.7621    6.3521   -0.0962 Cl  0  0  0  0  0  0
    2.3304    9.2205   -0.0233 Cl  0  0  0  0  0  0
   -0.7993    9.3735    0.0410 Cl  0  0  0  0  0  0
   -2.5316    6.8200    0.0356 Cl  0  0  0  0  0  0
  1  6  1  0  0  0
  1 13  1  0  0  0
  1  2  2  0  0  0
  2  3  1  0  0  0
  2 11  1  0  0  0
  3  4  2  0  0  0
  3 10  1  0  0  0
  4  5  1  0  0  0
  4  9  1  0  0  0
  5  6  2  0  0  0
  5  8  1  0  0  0
  6  7  1  0  0  0
 11 12  1  0  0  0
 12 17  1  0  0  0
 12 13  2  0  0  0
 13 14  1  0  0  0
 14 15  2  0  0  0
 14 21  1  0  0  0
 15 16  1  0  0  0
 15 20  1  0  0  0
 16 17  2  0  0  0
 16 19  1  0  0  0
 17 18  1  0  0  0
M  END
>  <i_m_Spin_multiplicity> (1)
1

>  <s_j_Task> (1)
Single Point

>  <s_j_QM_Method> (1)
DFT(b3lyp-d3)

>  <s_j_QM_Basis> (1)
cc-pvtz(-f)

>  <i_j_Number_of_canonical_orbitals> (1)
502

>  <i_j_Geometry_convergence_category> (1)
0

>  <r_j_Gas_Phase_Energy> (1)
-4214.49328779579

>  <r_j_Final_Energy> (1)
-4214.49328779579

>  <r_j_HOMO> (1)
-0.227798762030637

>  <r_j_LUMO> (1)
-0.0687306168273892

>  <r_j_Polarizability> (1)
256.66227974196

>  <r_j_QM_Dipole_(debye)> (1)
0.246198164172846

>  <r_j_QM_Dipole_X_(debye)> (1)
0.239312406758925

>  <r_j_QM_Dipole_Y_(debye)> (1)
-0.0575328936453914

>  <r_j_QM_Dipole_Z_(debye)> (1)
-0.00575101400783557

>  <r_j_Lowest_Frequency_(cm-1)> (1)
27.9452312392332

>  <r_j_Highest_Frequency_(cm-1)> (1)
1603.67519816179

>  <r_j_2nd_Lowest_Frequency_(cm-1)> (1)
48.8206203821148

>  <i_j_Num_Negative_Frequencies> (1)
0

>  <r_j_Zero_Point_Energy_(kcal/mol)> (1)
54.0975497681072

>  <r_j_Entropy_(cal/mol/K)_298.15K_1.00E+00atm> (1)
139.549166658272

>  <r_j_Enthalpy_(kcal/mol)_298.15K_1.00E+00atm> (1)
12.1079424070709

>  <r_j_Free_Energy_(kcal/mol)_298.15K_1.00E+00atm> (1)
-29.4986416320928

>  <r_j_Internal_Energy_(kcal/mol)_298.15K_1.00E+00atm> (1)
11.5154568182436

>  <r_j_Heat_Capacity_(cal/mol/K)_298.15K_1.00E+00atm> (1)
66.5114603604137

>  <r_j_ln(Q)_298.15K_1.00E+00atm> (1)
49.7879479068519

>  <r_j_Total_Internal_Energy_(au)_298.15K_1.00E+00atm> (1)
-4214.38872681349

>  <r_j_Total_Enthalpy_(au)_298.15K_1.00E+00atm> (1)
-4214.3877826276

>  <r_j_Total_Free_Energy_(au)_298.15K_1.00E+00atm> (1)
-4214.45408694017

>  <r_lp_tautomer_probability> (1)
1

>  <r_epik_Ionization_Penalty> (1)
  0.0000

>  <r_epik_Ionization_Penalty_Charging> (1)
  0.0000

>  <r_epik_Ionization_Penalty_Neutral> (1)
  0.0000

>  <r_epik_State_Penalty> (1)
  0.0000

>  <r_epik_Charging_Adjusted_Penalty> (1)
0

>  <i_epik_Tot_Q> (1)
0

>  <i_epik_Tot_abs_Q> (1)
0

>  <s_lp_Force_Field> (1)
S-OPLS

>  <r_lp_Energy> (1)
31.2385

>  <b_lp_Chiralities_Consistent> (1)
1

$$$$
