38439_1,2,3,7,8-Pentachlorodibenzo-p-dioxin
                    3D
 Schrodinger Suite 2021-3.
 22 24  0  0  1  0            999 V2000
   -0.0882   -2.7599    0.0358 C   0  0  0  0  0  0
    0.0864   -2.0649    1.2217 C   0  0  0  0  0  0
    0.0665   -0.6677    1.2263 C   0  0  0  0  0  0
   -0.1280    0.0287    0.0445 C   0  0  0  0  0  0
   -0.3051   -0.6647   -1.1566 C   0  0  0  0  0  0
   -0.2851   -2.0649   -1.1610 C   0  0  0  0  0  0
   -0.5002   -2.9872   -2.6278 Cl  0  0  0  0  0  0
   -0.5468    0.2591   -2.6181 Cl  0  0  0  0  0  0
    0.2366    0.0609    2.3855 O   0  0  0  0  0  0
    0.4267   -0.6641    3.5359 C   0  0  0  0  0  0
    0.6042    0.0256    4.7375 C   0  0  0  0  0  0
    0.8025   -0.6810    5.9420 C   0  0  0  0  0  0
    0.8179   -2.0823    5.9098 C   0  0  0  0  0  0
    0.6405   -2.7684    4.7086 C   0  0  0  0  0  0
    0.4469   -2.0630    3.5335 C   0  0  0  0  0  0
    0.2773   -2.7910    2.3773 O   0  0  0  0  0  0
    1.0579   -3.0256    7.3595 Cl  0  0  0  0  0  0
    1.0232    0.1803    7.4359 Cl  0  0  0  0  0  0
    0.5725    1.7634    4.6973 Cl  0  0  0  0  0  0
   -0.0702   -3.8427    0.0484 H   0  0  0  0  0  0
   -0.1409    1.1115    0.0645 H   0  0  0  0  0  0
    0.6520   -3.8507    4.6811 H   0  0  0  0  0  0
  1  6  1  0  0  0
  1  2  2  0  0  0
  1 20  1  0  0  0
  2 16  1  0  0  0
  2  3  1  0  0  0
  3  4  2  0  0  0
  3  9  1  0  0  0
  4  5  1  0  0  0
  4 21  1  0  0  0
  5  6  2  0  0  0
  5  8  1  0  0  0
  6  7  1  0  0  0
  9 10  1  0  0  0
 10 15  1  0  0  0
 10 11  2  0  0  0
 11 12  1  0  0  0
 11 19  1  0  0  0
 12 13  2  0  0  0
 12 18  1  0  0  0
 13 14  1  0  0  0
 13 17  1  0  0  0
 14 15  2  0  0  0
 14 22  1  0  0  0
 15 16  1  0  0  0
M  END
>  <i_m_Spin_multiplicity> (1)
1

>  <s_j_Task> (1)
Single Point

>  <s_j_QM_Method> (1)
DFT(b3lyp-d3)

>  <s_j_QM_Basis> (1)
cc-pvtz(-f)

>  <i_j_Number_of_canonical_orbitals> (1)
473

>  <i_j_Geometry_convergence_category> (1)
0

>  <r_j_Gas_Phase_Energy> (1)
-2910.86450947679

>  <r_j_Final_Energy> (1)
-2910.86450947679

>  <r_j_HOMO> (1)
-0.249719301128992

>  <r_j_LUMO> (1)
-0.0844944831113121

>  <r_j_Polarizability> (1)
215.789484138341

>  <r_j_QM_Dipole_(debye)> (1)
0.995288296628856

>  <r_j_QM_Dipole_X_(debye)> (1)
-0.00254248713591099

>  <r_j_QM_Dipole_Y_(debye)> (1)
-0.989309991500172

>  <r_j_QM_Dipole_Z_(debye)> (1)
-0.108894765179341

>  <r_j_Lowest_Frequency_(cm-1)> (1)
33.0052151230156

>  <r_j_Highest_Frequency_(cm-1)> (1)
3178.55979863105

>  <r_j_2nd_Lowest_Frequency_(cm-1)> (1)
56.6714206858779

>  <i_j_Num_Negative_Frequencies> (1)
0

>  <r_j_Zero_Point_Energy_(kcal/mol)> (1)
74.7235101461254

>  <r_j_Entropy_(cal/mol/K)_298.15K_1.00E+00atm> (1)
126.381504166824

>  <r_j_Enthalpy_(kcal/mol)_298.15K_1.00E+00atm> (1)
10.3932289022589

>  <r_j_Free_Energy_(kcal/mol)_298.15K_1.00E+00atm> (1)
-27.2874165650798

>  <r_j_Internal_Energy_(kcal/mol)_298.15K_1.00E+00atm> (1)
9.80074331343164

>  <r_j_Heat_Capacity_(cal/mol/K)_298.15K_1.00E+00atm> (1)
58.9995775890215

>  <r_j_ln(Q)_298.15K_1.00E+00atm> (1)
46.0558317023214

>  <r_j_Total_Internal_Energy_(au)_298.15K_1.00E+00atm> (1)
-2910.72981150409

>  <r_j_Total_Enthalpy_(au)_298.15K_1.00E+00atm> (1)
-2910.72886731819

>  <r_j_Total_Free_Energy_(au)_298.15K_1.00E+00atm> (1)
-2910.78891524937

>  <r_lp_tautomer_probability> (1)
1

>  <r_epik_Ionization_Penalty> (1)
  0.0000

>  <r_epik_Ionization_Penalty_Charging> (1)
  0.0000

>  <r_epik_Ionization_Penalty_Neutral> (1)
  0.0000

>  <r_epik_State_Penalty> (1)
  0.0000

>  <r_epik_Charging_Adjusted_Penalty> (1)
0

>  <i_epik_Tot_Q> (1)
0

>  <i_epik_Tot_abs_Q> (1)
0

>  <s_lp_Force_Field> (1)
S-OPLS

>  <r_lp_Energy> (1)
27.531

>  <b_lp_Chiralities_Consistent> (1)
1

$$$$
