38479_Pendimethalin
                    3D
 Schrodinger Suite 2021-3.
 39 39  0  0  1  0            999 V2000
   -0.3244   -0.4135    2.7578 C   0  0  0  0  0  0
   -0.4188   -0.9925    1.3423 C   0  0  0  0  0  0
   -0.1079    0.0284    0.2372 C   0  0  0  0  0  0
   -0.3360   -0.5351   -1.1823 C   0  0  0  0  0  0
   -1.8160   -0.6699   -1.5498 C   0  0  0  0  0  0
    1.2933    0.4542    0.4185 N   0  0  0  0  0  0
    2.0120    1.3310   -0.3283 C   0  0  0  0  0  0
    3.4286    1.2154   -0.5039 C   0  0  0  0  0  0
    4.1381    2.0866   -1.3367 C   0  0  0  0  0  0
    3.5308    3.1152   -2.0344 C   0  0  0  0  0  0
    2.1382    3.3057   -1.8653 C   0  0  0  0  0  0
    1.4450    2.4354   -1.0276 C   0  0  0  0  0  0
    0.0249    2.7475   -0.7966 N   0  3  1  0  0  0
   -0.2901    3.1115    0.3344 O   0  0  0  0  0  0
   -0.7497    2.6502   -1.7491 O   0  5  0  0  0  0
    1.4334    4.4390   -2.5721 C   0  0  0  0  0  0
    4.3482    4.0053   -2.9403 C   0  0  0  0  0  0
    4.2073    0.1643    0.1271 N   0  3  1  0  0  0
    3.6553   -0.5875    0.9563 O   0  0  0  0  0  0
    5.3960    0.0485   -0.1735 O   0  5  0  0  0  0
   -0.5834   -1.1686    3.5062 H   0  0  0  0  0  0
   -1.0097    0.4323    2.8782 H   0  0  0  0  0  0
    0.6846   -0.0530    2.9787 H   0  0  0  0  0  0
    0.2580   -1.8520    1.2334 H   0  0  0  0  0  0
   -1.4294   -1.3765    1.1707 H   0  0  0  0  0  0
   -0.7735    0.8803    0.3954 H   0  0  0  0  0  0
    0.1396    0.1346   -1.9065 H   0  0  0  0  0  0
    0.1779   -1.5019   -1.2624 H   0  0  0  0  0  0
   -1.9272   -1.0537   -2.5683 H   0  0  0  0  0  0
   -2.3089    0.3070   -1.5059 H   0  0  0  0  0  0
   -2.3493   -1.3530   -0.8811 H   0  0  0  0  0  0
    1.8962   -0.2343    0.8593 H   0  0  0  0  0  0
    5.2037    1.9190   -1.4295 H   0  0  0  0  0  0
    0.5656    4.8056   -2.0222 H   0  0  0  0  0  0
    1.0753    4.1057   -3.5523 H   0  0  0  0  0  0
    2.1111    5.2787   -2.7311 H   0  0  0  0  0  0
    3.9347    4.0396   -3.9542 H   0  0  0  0  0  0
    5.3756    3.6407   -3.0121 H   0  0  0  0  0  0
    4.3897    5.0376   -2.5729 H   0  0  0  0  0  0
  1  2  1  0  0  0
  1 21  1  0  0  0
  1 22  1  0  0  0
  1 23  1  0  0  0
  2  3  1  0  0  0
  2 24  1  0  0  0
  2 25  1  0  0  0
  3  4  1  0  0  0
  3  6  1  0  0  0
  3 26  1  0  0  0
  4  5  1  0  0  0
  4 27  1  0  0  0
  4 28  1  0  0  0
  5 29  1  0  0  0
  5 30  1  0  0  0
  5 31  1  0  0  0
  6  7  1  0  0  0
  6 32  1  0  0  0
  7 12  1  0  0  0
  7  8  2  0  0  0
  8  9  1  0  0  0
  8 18  1  0  0  0
  9 10  2  0  0  0
  9 33  1  0  0  0
 10 11  1  0  0  0
 10 17  1  0  0  0
 11 12  2  0  0  0
 11 16  1  0  0  0
 12 13  1  0  0  0
 13 14  2  0  0  0
 13 15  1  0  0  0
 16 34  1  0  0  0
 16 35  1  0  0  0
 16 36  1  0  0  0
 17 37  1  0  0  0
 17 38  1  0  0  0
 17 39  1  0  0  0
 18 19  2  0  0  0
 18 20  1  0  0  0
M  END
>  <i_m_Spin_multiplicity> (1)
1

>  <s_j_Task> (1)
Single Point

>  <s_j_QM_Method> (1)
DFT(b3lyp-d3)

>  <s_j_QM_Basis> (1)
cc-pvtz(-f)

>  <i_j_Number_of_canonical_orbitals> (1)
621

>  <i_j_Geometry_convergence_category> (1)
3

>  <r_j_Gas_Phase_Energy> (1)
-972.159034120697

>  <r_j_Final_Energy> (1)
-972.159034120697

>  <r_j_HOMO> (1)
-0.218850268581723

>  <r_j_LUMO> (1)
-0.0926323551251892

>  <r_j_Polarizability> (1)
202.149461349046

>  <r_j_QM_Dipole_(debye)> (1)
2.98705023523164

>  <r_j_QM_Dipole_X_(debye)> (1)
-0.656854005500795

>  <r_j_QM_Dipole_Y_(debye)> (1)
1.58190224569822

>  <r_j_QM_Dipole_Z_(debye)> (1)
-2.44716105075042

>  <r_j_Lowest_Frequency_(cm-1)> (1)
48.2564334979004

>  <r_j_Highest_Frequency_(cm-1)> (1)
3436.676464337

>  <r_j_2nd_Lowest_Frequency_(cm-1)> (1)
49.3166401345784

>  <i_j_Num_Negative_Frequencies> (1)
0

>  <r_j_Zero_Point_Energy_(kcal/mol)> (1)
200.213595485091

>  <r_j_Entropy_(cal/mol/K)_298.15K_1.00E+00atm> (1)
139.246909629547

>  <r_j_Enthalpy_(kcal/mol)_298.15K_1.00E+00atm> (1)
12.8314159676482

>  <r_j_Free_Energy_(kcal/mol)_298.15K_1.00E+00atm> (1)
-28.6850501384012

>  <r_j_Internal_Energy_(kcal/mol)_298.15K_1.00E+00atm> (1)
12.2389303788209

>  <r_j_Heat_Capacity_(cal/mol/K)_298.15K_1.00E+00atm> (1)
75.280943729681

>  <r_j_ln(Q)_298.15K_1.00E+00atm> (1)
48.4147643070584

>  <r_j_Total_Internal_Energy_(au)_298.15K_1.00E+00atm> (1)
-971.820469467857

>  <r_j_Total_Enthalpy_(au)_298.15K_1.00E+00atm> (1)
-971.819525281965

>  <r_j_Total_Free_Energy_(au)_298.15K_1.00E+00atm> (1)
-971.885685982466

>  <r_lp_tautomer_probability> (1)
1

>  <r_epik_Ionization_Penalty> (1)
  0.0001

>  <r_epik_Ionization_Penalty_Charging> (1)
  0.0000

>  <r_epik_Ionization_Penalty_Neutral> (1)
  0.0001

>  <r_epik_State_Penalty> (1)
  0.0000

>  <r_epik_Charging_Adjusted_Penalty> (1)
0

>  <i_epik_Tot_Q> (1)
0

>  <i_epik_Tot_abs_Q> (1)
4

>  <s_lp_Force_Field> (1)
S-OPLS

>  <r_lp_Energy> (1)
30.222749

>  <b_lp_Chiralities_Consistent> (1)
1

$$$$
