385_Heptanedioic acid
                    3D
 Schrodinger Suite 2021-3.
 23 22  0  0  1  0            999 V2000
    0.0101    0.0291   -0.0267 C   0  0  0  0  0  0
    1.5417   -0.0056   -0.0194 C   0  0  0  0  0  0
    2.0934   -1.4430   -0.0066 C   0  0  0  0  0  0
    3.6040   -1.4847    0.0142 C   0  0  0  0  0  0
    4.3174   -1.9490   -0.8469 O   0  0  0  0  0  0
    4.1013   -0.9110    1.1417 O   0  0  0  0  0  0
   -0.5484    1.4553   -0.0359 C   0  0  0  0  0  0
   -2.0765    1.4839   -0.0206 C   0  0  0  0  0  0
   -2.6396    2.8874   -0.0216 C   0  0  0  0  0  0
   -1.9952    3.9129   -0.0365 O   0  0  0  0  0  0
   -3.9965    2.8757   -0.0023 O   0  0  0  0  0  0
   -0.3682   -0.5085    0.8546 H   0  0  0  0  0  0
   -0.3648   -0.5198   -0.9022 H   0  0  0  0  0  0
    1.9223    0.5317    0.8565 H   0  0  0  0  0  0
    1.9257    0.5216   -0.9023 H   0  0  0  0  0  0
    1.7655   -1.9974   -0.8892 H   0  0  0  0  0  0
    1.7249   -1.9661    0.8844 H   0  0  0  0  0  0
    5.0691   -0.9638    1.0674 H   0  0  0  0  0  0
   -0.1873    1.9957   -0.9187 H   0  0  0  0  0  0
   -0.1705    2.0122    0.8294 H   0  0  0  0  0  0
   -2.4778    0.9658    0.8599 H   0  0  0  0  0  0
   -2.4965    0.9559   -0.8863 H   0  0  0  0  0  0
   -4.2764    3.8067   -0.0037 H   0  0  0  0  0  0
  1  2  1  0  0  0
  1  7  1  0  0  0
  1 12  1  0  0  0
  1 13  1  0  0  0
  2  3  1  0  0  0
  2 14  1  0  0  0
  2 15  1  0  0  0
  3  4  1  0  0  0
  3 16  1  0  0  0
  3 17  1  0  0  0
  4  5  2  0  0  0
  4  6  1  0  0  0
  6 18  1  0  0  0
  7  8  1  0  0  0
  7 19  1  0  0  0
  7 20  1  0  0  0
  8  9  1  0  0  0
  8 21  1  0  0  0
  8 22  1  0  0  0
  9 10  2  0  0  0
  9 11  1  0  0  0
 11 23  1  0  0  0
M  END
>  <i_m_Spin_multiplicity> (1)
1

>  <s_j_Task> (1)
Single Point

>  <s_j_QM_Method> (1)
DFT(b3lyp-d3)

>  <s_j_QM_Basis> (1)
cc-pvtz(-f)

>  <i_j_Number_of_canonical_orbitals> (1)
359

>  <i_j_Geometry_convergence_category> (1)
3

>  <r_j_Gas_Phase_Energy> (1)
-575.139045503087

>  <r_j_Final_Energy> (1)
-575.139045503087

>  <r_j_HOMO> (1)
-0.273763695730951

>  <r_j_LUMO> (1)
-0.011269070771036

>  <r_j_Polarizability> (1)
95.7115462262417

>  <r_j_QM_Dipole_(debye)> (1)
2.26809218512057

>  <r_j_QM_Dipole_X_(debye)> (1)
-1.85222708865149

>  <r_j_QM_Dipole_Y_(debye)> (1)
-0.353392665168802

>  <r_j_QM_Dipole_Z_(debye)> (1)
1.26040096654816

>  <r_j_Lowest_Frequency_(cm-1)> (1)
52.0735306435935

>  <r_j_Highest_Frequency_(cm-1)> (1)
3699.33791436839

>  <r_j_2nd_Lowest_Frequency_(cm-1)> (1)
66.756008420613

>  <i_j_Num_Negative_Frequencies> (1)
0

>  <r_j_Zero_Point_Energy_(kcal/mol)> (1)
120.249602572216

>  <r_j_Entropy_(cal/mol/K)_298.15K_1.00E+00atm> (1)
106.616079661835

>  <r_j_Enthalpy_(kcal/mol)_298.15K_1.00E+00atm> (1)
7.86215549002282

>  <r_j_Free_Energy_(kcal/mol)_298.15K_1.00E+00atm> (1)
-23.9254286611532

>  <r_j_Internal_Energy_(kcal/mol)_298.15K_1.00E+00atm> (1)
7.26966990119555

>  <r_j_Heat_Capacity_(cal/mol/K)_298.15K_1.00E+00atm> (1)
42.0051101322924

>  <r_j_ln(Q)_298.15K_1.00E+00atm> (1)
40.3814524982954

>  <r_j_Total_Internal_Energy_(au)_298.15K_1.00E+00atm> (1)
-574.935830605831

>  <r_j_Total_Enthalpy_(au)_298.15K_1.00E+00atm> (1)
-574.934886419938

>  <r_j_Total_Free_Energy_(au)_298.15K_1.00E+00atm> (1)
-574.985543160069

>  <r_lp_tautomer_probability> (1)
1

>  <s_lp_Force_Field> (1)
S-OPLS

>  <r_lp_Energy> (1)
-2.578906

>  <b_lp_Chiralities_Consistent> (1)
1

$$$$
