3893_Lauric acid
                    3D
 Schrodinger Suite 2021-3.
 37 36  0  0  1  0            999 V2000
   -5.0403    4.2361   -0.0868 C   0  0  0  0  0  0
   -4.3827    2.8528   -0.0679 C   0  0  0  0  0  0
   -2.8504    2.9119   -0.0600 C   0  0  0  0  0  0
   -2.1875    1.5300   -0.0390 C   0  0  0  0  0  0
   -0.6554    1.5804   -0.0145 C   0  0  0  0  0  0
   -0.0091    0.1893    0.0205 C   0  0  0  0  0  0
    1.5277    0.1968    0.0096 C   0  0  0  0  0  0
    2.1769    0.8573    1.2339 C   0  0  0  0  0  0
    3.6996    0.6907    1.2772 C   0  0  0  0  0  0
    4.3587    1.3804    2.4769 C   0  0  0  0  0  0
    5.8794    1.2019    2.4982 C   0  0  0  0  0  0
    6.6521    1.9288    1.3286 C   0  0  0  0  0  0
    7.8774    1.6698    1.2796 O   0  0  0  0  0  0
    5.9616    2.6897    0.5966 O   0  5  0  0  0  0
   -6.1338    4.1658   -0.0902 H   0  0  0  0  0  0
   -4.7392    4.8028   -0.9757 H   0  0  0  0  0  0
   -4.7461    4.8233    0.7910 H   0  0  0  0  0  0
   -4.7265    2.2950    0.8143 H   0  0  0  0  0  0
   -4.7178    2.2745   -0.9403 H   0  0  0  0  0  0
   -2.5037    3.4699   -0.9418 H   0  0  0  0  0  0
   -2.5144    3.4899    0.8129 H   0  0  0  0  0  0
   -2.5446    0.9724    0.8395 H   0  0  0  0  0  0
   -2.5209    0.9550   -0.9157 H   0  0  0  0  0  0
   -0.2919    2.1274   -0.8964 H   0  0  0  0  0  0
   -0.3289    2.1617    0.8567 H   0  0  0  0  0  0
   -0.3596   -0.3423    0.9182 H   0  0  0  0  0  0
   -0.3780   -0.3911   -0.8384 H   0  0  0  0  0  0
    1.8808   -0.8416   -0.0592 H   0  0  0  0  0  0
    1.8860    0.6964   -0.9016 H   0  0  0  0  0  0
    1.9388    1.9296    1.2476 H   0  0  0  0  0  0
    1.7286    0.4352    2.1482 H   0  0  0  0  0  0
    3.9428   -0.3839    1.2896 H   0  0  0  0  0  0
    4.1574    1.1195    0.3792 H   0  0  0  0  0  0
    4.1487    2.4550    2.4079 H   0  0  0  0  0  0
    3.9024    1.0086    3.4110 H   0  0  0  0  0  0
    6.2915    1.5855    3.4429 H   0  0  0  0  0  0
    6.1474    0.1356    2.4716 H   0  0  0  0  0  0
  1  2  1  0  0  0
  1 15  1  0  0  0
  1 16  1  0  0  0
  1 17  1  0  0  0
  2  3  1  0  0  0
  2 18  1  0  0  0
  2 19  1  0  0  0
  3  4  1  0  0  0
  3 20  1  0  0  0
  3 21  1  0  0  0
  4  5  1  0  0  0
  4 22  1  0  0  0
  4 23  1  0  0  0
  5  6  1  0  0  0
  5 24  1  0  0  0
  5 25  1  0  0  0
  6  7  1  0  0  0
  6 26  1  0  0  0
  6 27  1  0  0  0
  7  8  1  0  0  0
  7 28  1  0  0  0
  7 29  1  0  0  0
  8  9  1  0  0  0
  8 30  1  0  0  0
  8 31  1  0  0  0
  9 10  1  0  0  0
  9 32  1  0  0  0
  9 33  1  0  0  0
 10 11  1  0  0  0
 10 34  1  0  0  0
 10 35  1  0  0  0
 11 12  1  0  0  0
 11 36  1  0  0  0
 11 37  1  0  0  0
 12 13  2  0  0  0
 12 14  1  0  0  0
M  END
>  <i_m_Spin_multiplicity> (1)
1

>  <s_j_Task> (1)
Single Point

>  <s_j_QM_Method> (1)
DFT(b3lyp-d3)

>  <s_j_QM_Basis> (1)
cc-pvtz(-f)

>  <i_j_Number_of_canonical_orbitals> (1)
526

>  <i_j_Geometry_convergence_category> (1)
0

>  <r_j_Gas_Phase_Energy> (1)
-621.903888066956

>  <r_j_Final_Energy> (1)
-621.903888066956

>  <r_j_HOMO> (1)
-0.0323233192274859

>  <r_j_LUMO> (1)
0.105932211967166

>  <r_j_Polarizability> (1)
159.123585158199

>  <r_j_QM_Dipole_(debye)> (1)
22.3693454030758

>  <r_j_QM_Dipole_X_(debye)> (1)
-22.2928524154211

>  <r_j_QM_Dipole_Y_(debye)> (1)
-1.49117616532989

>  <r_j_QM_Dipole_Z_(debye)> (1)
-1.09212572092836

>  <r_j_Lowest_Frequency_(cm-1)> (1)
31.8469453677283

>  <r_j_Highest_Frequency_(cm-1)> (1)
3037.7514956582

>  <r_j_2nd_Lowest_Frequency_(cm-1)> (1)
61.4773118571801

>  <i_j_Num_Negative_Frequencies> (1)
0

>  <r_j_Zero_Point_Energy_(kcal/mol)> (1)
208.814190355374

>  <r_j_Entropy_(cal/mol/K)_298.15K_1.00E+00atm> (1)
126.259923413413

>  <r_j_Enthalpy_(kcal/mol)_298.15K_1.00E+00atm> (1)
10.6462876069711

>  <r_j_Free_Energy_(kcal/mol)_298.15K_1.00E+00atm> (1)
-26.9981085587379

>  <r_j_Internal_Energy_(kcal/mol)_298.15K_1.00E+00atm> (1)
10.0538020181439

>  <r_j_Heat_Capacity_(cal/mol/K)_298.15K_1.00E+00atm> (1)
60.2291154580339

>  <r_j_ln(Q)_298.15K_1.00E+00atm> (1)
45.5675362706731

>  <r_j_Total_Internal_Energy_(au)_298.15K_1.00E+00atm> (1)
-621.555099717398

>  <r_j_Total_Enthalpy_(au)_298.15K_1.00E+00atm> (1)
-621.554155531506

>  <r_j_Total_Free_Energy_(au)_298.15K_1.00E+00atm> (1)
-621.614145695743

>  <r_epik_Ionization_Penalty> (1)
  0.0049

>  <r_epik_Ionization_Penalty_Charging> (1)
  0.0049

>  <r_epik_Ionization_Penalty_Neutral> (1)
  0.0000

>  <r_epik_State_Penalty> (1)
  0.0035

>  <r_epik_Charging_Adjusted_Penalty> (1)
0.00839777765143097

>  <i_epik_Tot_Q> (1)
-1

>  <i_epik_Tot_abs_Q> (1)
1

>  <s_lp_Force_Field> (1)
S-OPLS

>  <r_lp_Energy> (1)
5.001773

>  <b_lp_Chiralities_Consistent> (1)
1

$$$$
