39185_1,8-dinitropyrene
                    3D
 Schrodinger Suite 2021-3.
 30 33  0  0  1  0            999 V2000
   -4.9109    1.1696    0.0000 C   0  0  0  0  0  0
   -4.2177    0.0025    0.0000 C   0  0  0  0  0  0
   -2.7848    0.0006    0.0000 C   0  0  0  0  0  0
   -2.0664    1.2379    0.0000 C   0  0  0  0  0  0
   -0.6303    1.2400    0.0000 C   0  0  0  0  0  0
    0.0209   -0.0236    0.0000 C   0  0  0  0  0  0
   -0.6958   -1.2209    0.0000 C   0  0  0  0  0  0
   -2.0775   -1.2096   -0.0001 C   0  0  0  0  0  0
    1.4923   -0.1865    0.0001 N   0  3  1  0  0  0
    1.9327   -1.3377    0.0002 O   0  0  0  0  0  0
    2.2166    0.8100    0.0000 O   0  5  0  0  0  0
    0.0172    2.5195    0.0000 C   0  0  0  0  0  0
   -0.6791    3.6907    0.0000 C   0  0  0  0  0  0
   -2.1123    3.7325    0.0000 C   0  0  0  0  0  0
   -2.9117    4.9081    0.0000 C   0  0  0  0  0  0
   -4.3061    4.8486    0.0000 C   0  0  0  0  0  0
   -4.9559    3.6290    0.0001 C   0  0  0  0  0  0
   -4.2294    2.4301    0.0000 C   0  0  0  0  0  0
   -2.7996    2.4713    0.0000 C   0  0  0  0  0  0
   -2.3548    6.2792   -0.0001 N   0  3  1  0  0  0
   -3.1573    7.2147    0.0000 O   0  0  0  0  0  0
   -1.1337    6.4416   -0.0001 O   0  5  0  0  0  0
   -5.9969    1.1707    0.0000 H   0  0  0  0  0  0
   -4.7357   -0.9519    0.0000 H   0  0  0  0  0  0
   -0.1464   -2.1522    0.0000 H   0  0  0  0  0  0
   -2.6248   -2.1468   -0.0001 H   0  0  0  0  0  0
    1.0937    2.5535    0.0000 H   0  0  0  0  0  0
   -0.1352    4.6204    0.0000 H   0  0  0  0  0  0
   -4.8626    5.7757    0.0001 H   0  0  0  0  0  0
   -6.0409    3.5956    0.0001 H   0  0  0  0  0  0
  1 18  1  0  0  0
  1  2  2  0  0  0
  1 23  1  0  0  0
  2  3  1  0  0  0
  2 24  1  0  0  0
  3  8  1  0  0  0
  3  4  2  0  0  0
  4 19  1  0  0  0
  4  5  1  0  0  0
  5  6  2  0  0  0
  5 12  1  0  0  0
  6  7  1  0  0  0
  6  9  1  0  0  0
  7  8  2  0  0  0
  7 25  1  0  0  0
  8 26  1  0  0  0
  9 10  2  0  0  0
  9 11  1  0  0  0
 12 13  2  0  0  0
 12 27  1  0  0  0
 13 14  1  0  0  0
 13 28  1  0  0  0
 14 19  1  0  0  0
 14 15  2  0  0  0
 15 16  1  0  0  0
 15 20  1  0  0  0
 16 17  2  0  0  0
 16 29  1  0  0  0
 17 18  1  0  0  0
 17 30  1  0  0  0
 18 19  2  0  0  0
 20 21  2  0  0  0
 20 22  1  0  0  0
M  END
>  <i_m_Spin_multiplicity> (1)
1

>  <s_j_Task> (1)
Single Point

>  <s_j_QM_Method> (1)
DFT(b3lyp-d3)

>  <s_j_QM_Basis> (1)
cc-pvtz(-f)

>  <i_j_Number_of_canonical_orbitals> (1)
559

>  <i_j_Geometry_convergence_category> (1)
0

>  <r_j_Gas_Phase_Energy> (1)
-1025.10341235697

>  <r_j_Final_Energy> (1)
-1025.10341235697

>  <r_j_HOMO> (1)
-0.235552087244248

>  <r_j_LUMO> (1)
-0.121530079436214

>  <r_j_Polarizability> (1)
241.016258638486

>  <r_j_QM_Dipole_(debye)> (1)
7.31561017518207

>  <r_j_QM_Dipole_X_(debye)> (1)
-6.28051009545113

>  <r_j_QM_Dipole_Y_(debye)> (1)
-3.75144574423932

>  <r_j_QM_Dipole_Z_(debye)> (1)
-6.47502735355012e-05

>  <r_j_Lowest_Frequency_(cm-1)> (1)
40.8901954319603

>  <r_j_Highest_Frequency_(cm-1)> (1)
3247.73078474525

>  <r_j_2nd_Lowest_Frequency_(cm-1)> (1)
53.0737685399992

>  <i_j_Num_Negative_Frequencies> (1)
0

>  <r_j_Zero_Point_Energy_(kcal/mol)> (1)
132.696239958182

>  <r_j_Entropy_(cal/mol/K)_298.15K_1.00E+00atm> (1)
120.02891357849

>  <r_j_Enthalpy_(kcal/mol)_298.15K_1.00E+00atm> (1)
9.8235119189609

>  <r_j_Free_Energy_(kcal/mol)_298.15K_1.00E+00atm> (1)
-25.9631086644659

>  <r_j_Internal_Energy_(kcal/mol)_298.15K_1.00E+00atm> (1)
9.23102633013362

>  <r_j_Heat_Capacity_(cal/mol/K)_298.15K_1.00E+00atm> (1)
60.9991366602861

>  <r_j_ln(Q)_298.15K_1.00E+00atm> (1)
43.8206585173751

>  <r_j_Total_Internal_Energy_(au)_298.15K_1.00E+00atm> (1)
-1024.87723685991

>  <r_j_Total_Enthalpy_(au)_298.15K_1.00E+00atm> (1)
-1024.87629267402

>  <r_j_Total_Free_Energy_(au)_298.15K_1.00E+00atm> (1)
-1024.9333222844

>  <r_lp_tautomer_probability> (1)
1

>  <r_epik_Ionization_Penalty> (1)
  0.0000

>  <r_epik_Ionization_Penalty_Charging> (1)
  0.0000

>  <r_epik_Ionization_Penalty_Neutral> (1)
  0.0000

>  <r_epik_State_Penalty> (1)
  0.0000

>  <r_epik_Charging_Adjusted_Penalty> (1)
0

>  <i_epik_Tot_Q> (1)
0

>  <i_epik_Tot_abs_Q> (1)
4

>  <s_lp_Force_Field> (1)
S-OPLS

>  <r_lp_Energy> (1)
56.542

>  <b_lp_Chiralities_Consistent> (1)
1

$$$$
