3931_9,12-Octadecadienoic acid
                    3D
 Schrodinger Suite 2021-3.
 51 50  0  0  1  0            999 V2000
   -8.9840    1.8356   -1.5361 C   0  0  0  0  0  0
   -7.9920    1.4743   -2.6458 C   0  0  0  0  0  0
   -6.5621    1.9395   -2.3481 C   0  0  0  0  0  0
   -5.5655    1.5786   -3.4551 C   0  0  0  0  0  0
   -4.1184    2.0145   -3.1504 C   0  0  0  0  0  0
   -3.5252    1.3064   -1.9626 C   0  0  0  0  0  0
   -3.0148    1.8942   -0.8787 C   0  0  0  0  0  0
   -2.3713    1.1653    0.2792 C   0  0  0  0  0  0
   -0.8684    1.3290    0.2630 C   0  0  0  0  0  0
   -0.0005    0.3331    0.0722 C   0  0  0  0  0  0
    1.4895    0.4880   -0.0678 C   0  0  0  0  0  0
    1.9889    0.2668   -1.5147 C   0  0  0  0  0  0
    1.7042   -1.1339   -2.0748 C   0  0  0  0  0  0
    2.2206   -1.3549   -3.5061 C   0  0  0  0  0  0
    3.7479   -1.3340   -3.6615 C   0  0  0  0  0  0
    4.2174   -1.6810   -5.0798 C   0  0  0  0  0  0
    5.7342   -1.6868   -5.2652 C   0  0  0  0  0  0
    6.2028   -2.2806   -6.6530 C   0  0  0  0  0  0
    7.3214   -1.8745   -7.0497 O   0  0  0  0  0  0
    5.4149   -3.1121   -7.1761 O   0  5  0  0  0  0
   -9.9968    1.4903   -1.7705 H   0  0  0  0  0  0
   -9.0277    2.9205   -1.3847 H   0  0  0  0  0  0
   -8.6888    1.3827   -0.5825 H   0  0  0  0  0  0
   -7.9924    0.3862   -2.7983 H   0  0  0  0  0  0
   -8.3272    1.9126   -3.5961 H   0  0  0  0  0  0
   -6.5561    3.0291   -2.1971 H   0  0  0  0  0  0
   -6.2232    1.5039   -1.3989 H   0  0  0  0  0  0
   -5.5848    0.4918   -3.6207 H   0  0  0  0  0  0
   -5.8875    2.0360   -4.4003 H   0  0  0  0  0  0
   -3.5000    1.8090   -4.0359 H   0  0  0  0  0  0
   -4.0849    3.1006   -2.9926 H   0  0  0  0  0  0
   -3.5194    0.2155   -2.0187 H   0  0  0  0  0  0
   -3.0025    2.9844   -0.8258 H   0  0  0  0  0  0
   -2.7807    1.5539    1.2245 H   0  0  0  0  0  0
   -2.6255    0.0996    0.2353 H   0  0  0  0  0  0
   -0.4950    2.3497    0.3652 H   0  0  0  0  0  0
   -0.3926   -0.6779   -0.0437 H   0  0  0  0  0  0
    1.7876    1.4897    0.2675 H   0  0  0  0  0  0
    1.9989   -0.2303    0.5913 H   0  0  0  0  0  0
    1.5221    1.0177   -2.1666 H   0  0  0  0  0  0
    3.0677    0.4583   -1.5405 H   0  0  0  0  0  0
    2.1535   -1.8850   -1.4072 H   0  0  0  0  0  0
    0.6209   -1.3148   -2.0552 H   0  0  0  0  0  0
    1.8493   -2.3234   -3.8677 H   0  0  0  0  0  0
    1.7764   -0.5983   -4.1699 H   0  0  0  0  0  0
    4.1404   -0.3465   -3.3785 H   0  0  0  0  0  0
    4.1887   -2.0474   -2.9474 H   0  0  0  0  0  0
    3.8531   -2.6708   -5.3795 H   0  0  0  0  0  0
    3.7652   -0.9746   -5.7923 H   0  0  0  0  0  0
    6.1580   -0.6804   -5.1488 H   0  0  0  0  0  0
    6.1921   -2.3046   -4.4748 H   0  0  0  0  0  0
  1  2  1  0  0  0
  1 21  1  0  0  0
  1 22  1  0  0  0
  1 23  1  0  0  0
  2  3  1  0  0  0
  2 24  1  0  0  0
  2 25  1  0  0  0
  3  4  1  0  0  0
  3 26  1  0  0  0
  3 27  1  0  0  0
  4  5  1  0  0  0
  4 28  1  0  0  0
  4 29  1  0  0  0
  5  6  1  0  0  0
  5 30  1  0  0  0
  5 31  1  0  0  0
  6  7  2  0  0  0
  6 32  1  0  0  0
  7  8  1  0  0  0
  7 33  1  0  0  0
  8  9  1  0  0  0
  8 34  1  0  0  0
  8 35  1  0  0  0
  9 10  2  0  0  0
  9 36  1  0  0  0
 10 11  1  0  0  0
 10 37  1  0  0  0
 11 12  1  0  0  0
 11 38  1  0  0  0
 11 39  1  0  0  0
 12 13  1  0  0  0
 12 40  1  0  0  0
 12 41  1  0  0  0
 13 14  1  0  0  0
 13 42  1  0  0  0
 13 43  1  0  0  0
 14 15  1  0  0  0
 14 44  1  0  0  0
 14 45  1  0  0  0
 15 16  1  0  0  0
 15 46  1  0  0  0
 15 47  1  0  0  0
 16 17  1  0  0  0
 16 48  1  0  0  0
 16 49  1  0  0  0
 17 18  1  0  0  0
 17 50  1  0  0  0
 17 51  1  0  0  0
 18 19  2  0  0  0
 18 20  1  0  0  0
M  END
>  <s_lp_Force_Field> (1)
S-OPLS

>  <r_lp_Energy> (1)
2.732911

>  <b_lp_Chiralities_Consistent> (1)
1

>  <r_epik_Ionization_Penalty> (1)
  0.0048

>  <r_epik_Ionization_Penalty_Charging> (1)
  0.0048

>  <r_epik_Ionization_Penalty_Neutral> (1)
  0.0000

>  <r_epik_State_Penalty> (1)
  0.0035

>  <r_epik_Charging_Adjusted_Penalty> (1)
0.00836756904743483

>  <i_epik_Tot_Q> (1)
-1

>  <i_epik_Tot_abs_Q> (1)
1

>  <i_m_Spin_multiplicity> (1)
1

>  <s_j_Task> (1)
Single Point

>  <s_j_QM_Method> (1)
DFT(b3lyp-d3)

>  <s_j_QM_Basis> (1)
6-31g**

>  <i_j_Number_of_canonical_orbitals> (1)
455

>  <i_j_Geometry_convergence_category> (1)
4

>  <r_j_Gas_Phase_Energy> (1)
-855.143744831059

>  <r_j_Final_Energy> (1)
-855.143744831059

>  <r_j_HOMO> (1)
-0.00521399942458123

>  <r_j_LUMO> (1)
0.0677232582789355

>  <r_j_Polarizability> (1)
206.288017827402

>  <r_j_QM_Dipole_(debye)> (1)
35.6644529068526

>  <r_j_QM_Dipole_X_(debye)> (1)
-28.8104414654794

>  <r_j_QM_Dipole_Y_(debye)> (1)
11.0564036313705

>  <r_j_QM_Dipole_Z_(debye)> (1)
17.8792506120784

>  <r_j_Lowest_Frequency_(cm-1)> (1)
5.01007086715301

>  <r_j_Highest_Frequency_(cm-1)> (1)
3138.23346413281

>  <r_j_2nd_Lowest_Frequency_(cm-1)> (1)
15.2683130820635

>  <i_j_Num_Negative_Frequencies> (1)
0

>  <r_j_Zero_Point_Energy_(kcal/mol)> (1)
288.367367788569

>  <r_j_Entropy_(cal/mol/K)_298.15K_1.00E+00atm> (1)
160.162172313001

>  <r_j_Enthalpy_(kcal/mol)_298.15K_1.00E+00atm> (1)
15.1433036224736

>  <r_j_Free_Energy_(kcal/mol)_298.15K_1.00E+00atm> (1)
-32.6090480526476

>  <r_j_Internal_Energy_(kcal/mol)_298.15K_1.00E+00atm> (1)
14.5508180336463

>  <r_j_Heat_Capacity_(cal/mol/K)_298.15K_1.00E+00atm> (1)
86.5534129251785

>  <r_j_ln(Q)_298.15K_1.00E+00atm> (1)
55.0377066844642

>  <r_j_Total_Internal_Energy_(au)_298.15K_1.00E+00atm> (1)
-854.66101397152

>  <r_j_Total_Enthalpy_(au)_298.15K_1.00E+00atm> (1)
-854.660069785627

>  <r_j_Total_Free_Energy_(au)_298.15K_1.00E+00atm> (1)
-854.7361680024

$$$$
