39800_2-Methyl-4-Isothiazolin-3-one
                    3D
 Schrodinger Suite 2021-3.
 12 12  0  0  1  0            999 V2000
   -0.0115   -0.0320    0.0000 C   0  0  0  0  0  0
    1.4401   -0.0124    0.0000 N   0  0  0  0  0  0
    2.1904    1.1710    0.0000 C   0  0  0  0  0  0
    1.6851    2.2871    0.0000 O   0  0  0  0  0  0
    3.6133    0.8022    0.0000 C   0  0  0  0  0  0
    3.8341   -0.5258    0.0000 C   0  0  0  0  0  0
    2.3618   -1.4645    0.0000 S   0  0  0  0  0  0
   -0.3264    1.0138    0.0001 H   0  0  0  0  0  0
   -0.4019   -0.5292    0.8940 H   0  0  0  0  0  0
   -0.4019   -0.5292   -0.8939 H   0  0  0  0  0  0
    4.3818    1.5631    0.0001 H   0  0  0  0  0  0
    4.7829   -1.0468    0.0001 H   0  0  0  0  0  0
  1  2  1  0  0  0
  1  8  1  0  0  0
  1  9  1  0  0  0
  1 10  1  0  0  0
  2  7  1  0  0  0
  2  3  1  0  0  0
  3  4  2  0  0  0
  3  5  1  0  0  0
  5  6  2  0  0  0
  5 11  1  0  0  0
  6  7  1  0  0  0
  6 12  1  0  0  0
M  END
>  <i_m_Spin_multiplicity> (1)
1

>  <s_j_Task> (1)
Single Point

>  <s_j_QM_Method> (1)
DFT(b3lyp-d3)

>  <s_j_QM_Basis> (1)
cc-pvtz(-f)

>  <i_j_Number_of_canonical_orbitals> (1)
209

>  <i_j_Geometry_convergence_category> (1)
0

>  <r_j_Gas_Phase_Energy> (1)
-683.717450647517

>  <r_j_Final_Energy> (1)
-683.717450647517

>  <r_j_HOMO> (1)
-0.228026620316469

>  <r_j_LUMO> (1)
-0.0455499991547688

>  <r_j_Polarizability> (1)
71.5109038371829

>  <r_j_QM_Dipole_(debye)> (1)
3.52402448255064

>  <r_j_QM_Dipole_X_(debye)> (1)
0.831732531892957

>  <r_j_QM_Dipole_Y_(debye)> (1)
-3.42446630685054

>  <r_j_QM_Dipole_Z_(debye)> (1)
0.000249504891516714

>  <r_j_Lowest_Frequency_(cm-1)> (1)
128.926071174373

>  <r_j_Highest_Frequency_(cm-1)> (1)
3201.11923150755

>  <r_j_2nd_Lowest_Frequency_(cm-1)> (1)
192.249522788054

>  <i_j_Num_Negative_Frequencies> (1)
0

>  <r_j_Zero_Point_Energy_(kcal/mol)> (1)
54.6065811354072

>  <r_j_Entropy_(cal/mol/K)_298.15K_1.00E+00atm> (1)
80.2937148024839

>  <r_j_Enthalpy_(kcal/mol)_298.15K_1.00E+00atm> (1)
4.66373626513672

>  <r_j_Free_Energy_(kcal/mol)_298.15K_1.00E+00atm> (1)
-19.2758348032238

>  <r_j_Internal_Energy_(kcal/mol)_298.15K_1.00E+00atm> (1)
4.07125067630945

>  <r_j_Heat_Capacity_(cal/mol/K)_298.15K_1.00E+00atm> (1)
23.5819919945166

>  <r_j_ln(Q)_298.15K_1.00E+00atm> (1)
32.5338458296971

>  <r_j_Total_Internal_Energy_(au)_298.15K_1.00E+00atm> (1)
-683.623941569778

>  <r_j_Total_Enthalpy_(au)_298.15K_1.00E+00atm> (1)
-683.622997383886

>  <r_j_Total_Free_Energy_(au)_298.15K_1.00E+00atm> (1)
-683.661147519004

>  <r_lp_tautomer_probability> (1)
1

>  <r_epik_Ionization_Penalty> (1)
  0.0000

>  <r_epik_Ionization_Penalty_Charging> (1)
  0.0000

>  <r_epik_Ionization_Penalty_Neutral> (1)
  0.0000

>  <r_epik_State_Penalty> (1)
  0.0000

>  <r_epik_Charging_Adjusted_Penalty> (1)
1.37082e-06

>  <i_epik_Tot_Q> (1)
0

>  <i_epik_Tot_abs_Q> (1)
0

>  <s_lp_Force_Field> (1)
S-OPLS

>  <r_lp_Energy> (1)
1.05177

>  <b_lp_Chiralities_Consistent> (1)
1

$$$$
