4004_Malathion
                    3D
 Schrodinger Suite 2021-3.
 38 37  0  0  1  0            999 V2000
   -4.2760   -0.2165   -0.5528 C   0  0  0  0  0  0
   -3.5134    0.9139    0.1103 C   0  0  0  0  0  0
   -2.1098    0.6588   -0.1256 O   0  0  0  0  0  0
   -1.2256    1.4299    0.5427 C   0  0  0  0  0  0
   -1.5358    2.3465    1.2681 O   0  0  0  0  0  0
    0.2019    0.9975    0.2481 C   0  0  0  0  0  0
    0.3053   -0.4522   -0.2331 C   0  0  0  0  0  0
   -0.3515   -1.4805    0.6821 C   0  0  0  0  0  0
   -0.6829   -2.5925    0.3296 O   0  0  0  0  0  0
   -0.5275   -0.9992    1.9238 O   0  0  0  0  0  0
   -1.2350   -1.8543    2.8568 C   0  0  0  0  0  0
   -1.5501   -1.0093    4.0745 C   0  0  0  0  0  0
    2.0756   -0.9354   -0.4820 S   0  0  0  0  0  0
    2.1300   -1.4546   -2.5584 P   0  0  1  0  0  0
    0.7763   -0.6094   -3.6755 S   0  0  0  0  0  0
    3.6851   -1.1635   -2.8775 O   0  0  0  0  0  0
    4.1354    0.1860   -3.1017 C   0  0  0  0  0  0
    2.2486   -3.0582   -2.6151 O   0  0  0  0  0  0
    1.0813   -3.8667   -2.3368 C   0  0  0  0  0  0
   -5.3518   -0.0852   -0.4030 H   0  0  0  0  0  0
   -3.9778   -1.1799   -0.1287 H   0  0  0  0  0  0
   -4.0741   -0.2407   -1.6273 H   0  0  0  0  0  0
   -3.7681    1.8932   -0.3077 H   0  0  0  0  0  0
   -3.6855    0.9594    1.1903 H   0  0  0  0  0  0
    0.6027    1.6550   -0.5309 H   0  0  0  0  0  0
    0.7813    1.1700    1.1566 H   0  0  0  0  0  0
   -0.1881   -0.5537   -1.2020 H   0  0  0  0  0  0
   -2.1363   -2.2337    2.3659 H   0  0  0  0  0  0
   -0.5984   -2.7131    3.0931 H   0  0  0  0  0  0
   -2.1060   -1.6022    4.8071 H   0  0  0  0  0  0
   -2.1551   -0.1426    3.7931 H   0  0  0  0  0  0
   -0.6323   -0.6471    4.5455 H   0  0  0  0  0  0
    5.2010    0.1086   -3.3192 H   0  0  0  0  0  0
    3.9851    0.7970   -2.2057 H   0  0  0  0  0  0
    3.6086    0.6318   -3.9497 H   0  0  0  0  0  0
    0.6532   -3.6188   -1.3612 H   0  0  0  0  0  0
    1.4350   -4.8980   -2.3413 H   0  0  0  0  0  0
    0.3309   -3.7231   -3.1191 H   0  0  0  0  0  0
  1  2  1  0  0  0
  1 20  1  0  0  0
  1 21  1  0  0  0
  1 22  1  0  0  0
  2  3  1  0  0  0
  2 23  1  0  0  0
  2 24  1  0  0  0
  3  4  1  0  0  0
  4  5  2  0  0  0
  4  6  1  0  0  0
  6  7  1  0  0  0
  6 25  1  0  0  0
  6 26  1  0  0  0
  7  8  1  0  0  0
  7 13  1  0  0  0
  7 27  1  0  0  0
  8  9  2  0  0  0
  8 10  1  0  0  0
 10 11  1  0  0  0
 11 12  1  0  0  0
 11 28  1  0  0  0
 11 29  1  0  0  0
 12 30  1  0  0  0
 12 31  1  0  0  0
 12 32  1  0  0  0
 13 14  1  0  0  0
 14 15  2  0  0  0
 14 16  1  0  0  0
 14 18  1  0  0  0
 16 17  1  0  0  0
 17 33  1  0  0  0
 17 34  1  0  0  0
 17 35  1  0  0  0
 18 19  1  0  0  0
 19 36  1  0  0  0
 19 37  1  0  0  0
 19 38  1  0  0  0
M  END
>  <i_m_Spin_multiplicity> (1)
1

>  <s_j_Task> (1)
Single Point

>  <s_j_QM_Method> (1)
DFT(b3lyp-d3)

>  <s_j_QM_Basis> (1)
cc-pvtz(-f)

>  <i_j_Number_of_canonical_orbitals> (1)
618

>  <i_j_Geometry_convergence_category> (1)
1

>  <r_j_Gas_Phase_Energy> (1)
-1982.11172541673

>  <r_j_Final_Energy> (1)
-1982.11172541673

>  <r_j_HOMO> (1)
-0.240832389426204

>  <r_j_LUMO> (1)
-0.036881364885083

>  <r_j_Polarizability> (1)
201.423888624521

>  <r_j_QM_Dipole_(debye)> (1)
2.11580416216709

>  <r_j_QM_Dipole_X_(debye)> (1)
-0.915107083690412

>  <r_j_QM_Dipole_Y_(debye)> (1)
-0.425933469938898

>  <r_j_QM_Dipole_Z_(debye)> (1)
1.85951255903504

>  <r_j_Lowest_Frequency_(cm-1)> (1)
32.0674610490582

>  <r_j_Highest_Frequency_(cm-1)> (1)
3102.41886639979

>  <r_j_2nd_Lowest_Frequency_(cm-1)> (1)
36.462571020012

>  <i_j_Num_Negative_Frequencies> (1)
0

>  <r_j_Zero_Point_Energy_(kcal/mol)> (1)
188.328024679123

>  <r_j_Entropy_(cal/mol/K)_298.15K_1.00E+00atm> (1)
155.480337098459

>  <r_j_Enthalpy_(kcal/mol)_298.15K_1.00E+00atm> (1)
14.8068147503683

>  <r_j_Free_Energy_(kcal/mol)_298.15K_1.00E+00atm> (1)
-31.5496477555374

>  <r_j_Internal_Energy_(kcal/mol)_298.15K_1.00E+00atm> (1)
14.214329161541

>  <r_j_Heat_Capacity_(cal/mol/K)_298.15K_1.00E+00atm> (1)
81.5454619084535

>  <r_j_ln(Q)_298.15K_1.00E+00atm> (1)
53.2496458149887

>  <r_j_Total_Internal_Energy_(au)_298.15K_1.00E+00atm> (1)
-1981.78895362837

>  <r_j_Total_Enthalpy_(au)_298.15K_1.00E+00atm> (1)
-1981.78800944248

>  <r_j_Total_Free_Energy_(au)_298.15K_1.00E+00atm> (1)
-1981.86188316825

>  <r_lp_tautomer_probability> (1)
1

>  <r_epik_Ionization_Penalty> (1)
  0.0000

>  <r_epik_Ionization_Penalty_Charging> (1)
  0.0000

>  <r_epik_Ionization_Penalty_Neutral> (1)
  0.0000

>  <r_epik_State_Penalty> (1)
  0.0000

>  <r_epik_Charging_Adjusted_Penalty> (1)
0

>  <i_epik_Tot_Q> (1)
0

>  <i_epik_Tot_abs_Q> (1)
0

>  <s_lp_Force_Field> (1)
S-OPLS

>  <r_lp_Energy> (1)
3.096564

>  <b_lp_Chiralities_Consistent> (1)
1

>  <s_epik_Chemistry_Notes> (1)
This compound has an ester and may undergo hydrolysis at high or low pH.

$$$$
