402_Hydrogen sulfide
                    3D
 Schrodinger Suite 2021-3.
  3  2  0  0  1  0            999 V2000
    0.0000    0.0000   -0.0551 S   0  0  0  0  0  0
    0.0000    0.9767    0.8732 H   0  0  0  0  0  0
    0.0000   -0.9767    0.8732 H   0  0  0  0  0  0
  1  2  1  0  0  0
  1  3  1  0  0  0
M  END
>  <i_m_Spin_multiplicity> (1)
1

>  <s_j_Task> (1)
Single Point

>  <s_j_QM_Method> (1)
DFT(b3lyp-d3)

>  <s_j_QM_Basis> (1)
cc-pvtz(-f)

>  <i_j_Number_of_canonical_orbitals> (1)
45

>  <r_j_Gas_Phase_Energy> (1)
-399.429491900913

>  <r_j_Final_Energy> (1)
-399.429491900913

>  <r_j_Polarizability> (1)
18.7871642118623

>  <r_j_QM_Dipole_(debye)> (1)
1.07804318220842

>  <r_j_QM_Dipole_X_(debye)> (1)
1.08356088758885e-08

>  <r_j_QM_Dipole_Y_(debye)> (1)
1.60075058780627e-08

>  <r_j_QM_Dipole_Z_(debye)> (1)
1.07804318220842

>  <r_j_Zero_Point_Energy_(kcal/mol)> (1)
9.35003081952602

>  <r_j_Entropy_(cal/mol/K)_298.15K_1.00E+00atm> (1)
49.158507166737

>  <r_j_Enthalpy_(kcal/mol)_298.15K_1.00E+00atm> (1)
2.38004037562249

>  <r_j_Free_Energy_(kcal/mol)_298.15K_1.00E+00atm> (1)
-12.2765685361401

>  <r_j_Internal_Energy_(kcal/mol)_298.15K_1.00E+00atm> (1)
1.78755478679521

>  <r_j_Heat_Capacity_(cal/mol/K)_298.15K_1.00E+00atm> (1)
6.16106525906318

>  <r_j_ln(Q)_298.15K_1.00E+00atm> (1)
20.7204508728044

>  <r_j_Total_Internal_Energy_(au)_298.15K_1.00E+00atm> (1)
-399.411743028364

>  <r_j_Total_Enthalpy_(au)_298.15K_1.00E+00atm> (1)
-399.410798842472

>  <r_j_Total_Free_Energy_(au)_298.15K_1.00E+00atm> (1)
-399.434155635656

>  <r_j_HOMO> (1)
-0.264967322863749

>  <r_j_LUMO> (1)
0.0123905225349616

>  <r_j_Lowest_Frequency_(cm-1)> (1)
1211.08224714492

>  <r_j_Highest_Frequency_(cm-1)> (1)
2672.26141563804

>  <r_j_2nd_Lowest_Frequency_(cm-1)> (1)
2657.09807795082

>  <i_j_Num_Negative_Frequencies> (1)
0

>  <i_j_Geometry_convergence_category> (1)
0

$$$$
