40638_Dimethylindene
                    3D
 Schrodinger Suite 2021-3.
 23 24  0  0  1  0            999 V2000
   -0.0085   -0.0206   -0.0001 C   0  0  0  0  0  0
    1.4937    0.0077    0.0000 C   0  0  0  0  0  0
    2.3064   -1.0764    0.0001 C   0  0  0  0  0  0
    3.7584   -0.6504   -0.0001 C   0  0  0  0  0  0
    3.6762    0.8554    0.0000 C   0  0  0  0  0  0
    4.6762    1.8158    0.0000 C   0  0  0  0  0  0
    4.3134    3.1696    0.0001 C   0  0  0  0  0  0
    2.9666    3.5418    0.0001 C   0  0  0  0  0  0
    1.9557    2.5758    0.0000 C   0  0  0  0  0  0
    2.3149    1.2273    0.0000 C   0  0  0  0  0  0
    1.8753   -2.5127    0.0001 C   0  0  0  0  0  0
   -0.4373    0.9849    0.0001 H   0  0  0  0  0  0
   -0.3977   -0.5461    0.8805 H   0  0  0  0  0  0
   -0.3976   -0.5458   -0.8808 H   0  0  0  0  0  0
    4.2941   -1.0379   -0.8788 H   0  0  0  0  0  0
    4.2944   -1.0380    0.8784 H   0  0  0  0  0  0
    5.7243    1.5272    0.0000 H   0  0  0  0  0  0
    5.0840    3.9352    0.0001 H   0  0  0  0  0  0
    2.7019    4.5957    0.0001 H   0  0  0  0  0  0
    0.9118    2.8768    0.0000 H   0  0  0  0  0  0
    2.7328   -3.1920    0.0003 H   0  0  0  0  0  0
    1.2629   -2.7505   -0.8796 H   0  0  0  0  0  0
    1.2627   -2.7504    0.8798 H   0  0  0  0  0  0
  1 12  1  0  0  0
  1 13  1  0  0  0
  1 14  1  0  0  0
  1  2  1  0  0  0
  2 10  1  0  0  0
  2  3  2  0  0  0
  3  4  1  0  0  0
  3 11  1  0  0  0
  4  5  1  0  0  0
  4 16  1  0  0  0
  4 15  1  0  0  0
  5  6  1  0  0  0
  5 10  2  0  0  0
  6  7  2  0  0  0
  6 17  1  0  0  0
  7  8  1  0  0  0
  7 18  1  0  0  0
  8  9  2  0  0  0
  8 19  1  0  0  0
  9 10  1  0  0  0
  9 20  1  0  0  0
 11 21  1  0  0  0
 11 22  1  0  0  0
 11 23  1  0  0  0
M  END
>  <i_m_Spin_multiplicity> (1)
1

>  <s_j_Task> (1)
Single Point

>  <s_j_QM_Method> (1)
DFT(b3lyp-d3)

>  <s_j_QM_Basis> (1)
cc-pvtz(-f)

>  <i_j_Number_of_canonical_orbitals> (1)
353

>  <i_j_Geometry_convergence_category> (1)
0

>  <r_j_Gas_Phase_Energy> (1)
-426.547972124096

>  <r_j_Final_Energy> (1)
-426.547972124096

>  <r_j_HOMO> (1)
-0.202636971520146

>  <r_j_LUMO> (1)
-0.0193551074305142

>  <r_j_Polarizability> (1)
125.167811366129

>  <r_j_QM_Dipole_(debye)> (1)
1.24749863555613

>  <r_j_QM_Dipole_X_(debye)> (1)
-0.261544640996339

>  <r_j_QM_Dipole_Y_(debye)> (1)
-1.21977341237997

>  <r_j_QM_Dipole_Z_(debye)> (1)
-0.000262547964085531

>  <r_j_Lowest_Frequency_(cm-1)> (1)
130.198200340298

>  <r_j_Highest_Frequency_(cm-1)> (1)
3143.09791725368

>  <r_j_2nd_Lowest_Frequency_(cm-1)> (1)
134.585164651832

>  <i_j_Num_Negative_Frequencies> (1)
0

>  <r_j_Zero_Point_Energy_(kcal/mol)> (1)
122.016131720025

>  <r_j_Entropy_(cal/mol/K)_298.15K_1.00E+00atm> (1)
94.5931527949042

>  <r_j_Enthalpy_(kcal/mol)_298.15K_1.00E+00atm> (1)
6.64887650192399

>  <r_j_Free_Energy_(kcal/mol)_298.15K_1.00E+00atm> (1)
-21.5540720038767

>  <r_j_Internal_Energy_(kcal/mol)_298.15K_1.00E+00atm> (1)
6.05639091309671

>  <r_j_Heat_Capacity_(cal/mol/K)_298.15K_1.00E+00atm> (1)
38.3350653198678

>  <r_j_ln(Q)_298.15K_1.00E+00atm> (1)
36.3790654326958

>  <r_j_Total_Internal_Energy_(au)_298.15K_1.00E+00atm> (1)
-426.343875566584

>  <r_j_Total_Enthalpy_(au)_298.15K_1.00E+00atm> (1)
-426.342931380692

>  <r_j_Total_Free_Energy_(au)_298.15K_1.00E+00atm> (1)
-426.387875640267

>  <r_lp_tautomer_probability> (1)
0.5

>  <r_epik_Ionization_Penalty> (1)
  0.0000

>  <r_epik_Ionization_Penalty_Charging> (1)
  0.0000

>  <r_epik_Ionization_Penalty_Neutral> (1)
  0.0000

>  <r_epik_State_Penalty> (1)
  0.4107

>  <r_epik_Charging_Adjusted_Penalty> (1)
0.41068

>  <i_epik_Tot_Q> (1)
0

>  <i_epik_Tot_abs_Q> (1)
0

>  <s_lp_Force_Field> (1)
S-OPLS

>  <r_lp_Energy> (1)
8.64071

>  <b_lp_Chiralities_Consistent> (1)
1

$$$$
