40814_A-dimethylindane
                    3D
 Schrodinger Suite 2021-3.
 25 26  0  0  1  0            999 V2000
   -0.0001   -0.1690    0.0047 C   0  0  0  0  0  0
    1.5197   -0.0329   -0.0051 C   0  0  0  0  0  0
    2.0917    0.7340   -1.2254 C   0  0  0  0  0  0
    3.4057    1.2769   -0.7095 C   0  0  0  0  0  0
    4.5005    1.7532   -1.4252 C   0  0  0  0  0  0
    5.6079    2.2251   -0.7169 C   0  0  0  0  0  0
    5.6109    2.2231    0.6800 C   0  0  0  0  0  0
    4.5131    1.7503    1.4126 C   0  0  0  0  0  0
    3.4141    1.2727    0.6910 C   0  0  0  0  0  0
    2.1103    0.7158    1.2189 C   0  0  0  0  0  0
    4.5114    1.7493    2.9219 C   0  0  0  0  0  0
   -0.4783    0.8177    0.0139 H   0  0  0  0  0  0
   -0.3455   -0.7163    0.8885 H   0  0  0  0  0  0
   -0.3579   -0.7054   -0.8810 H   0  0  0  0  0  0
    1.9664   -1.0366   -0.0151 H   0  0  0  0  0  0
    2.1966    0.1015   -2.1134 H   0  0  0  0  0  0
    1.4213    1.5622   -1.5024 H   0  0  0  0  0  0
    4.4976    1.7529   -2.5121 H   0  0  0  0  0  0
    6.4777    2.5937   -1.2539 H   0  0  0  0  0  0
    6.4833    2.5933    1.2131 H   0  0  0  0  0  0
    1.4418    1.5343    1.5293 H   0  0  0  0  0  0
    2.2323    0.0649    2.0917 H   0  0  0  0  0  0
    3.6844    2.3496    3.3195 H   0  0  0  0  0  0
    5.4443    2.1538    3.3245 H   0  0  0  0  0  0
    4.3855    0.7349    3.3195 H   0  0  0  0  0  0
  1  2  1  0  0  0
  1 12  1  0  0  0
  1 13  1  0  0  0
  1 14  1  0  0  0
  2 10  1  0  0  0
  2  3  1  0  0  0
  2 15  1  0  0  0
  3  4  1  0  0  0
  3 16  1  0  0  0
  3 17  1  0  0  0
  4  9  1  0  0  0
  4  5  2  0  0  0
  5  6  1  0  0  0
  5 18  1  0  0  0
  6  7  2  0  0  0
  6 19  1  0  0  0
  7  8  1  0  0  0
  7 20  1  0  0  0
  8  9  2  0  0  0
  8 11  1  0  0  0
  9 10  1  0  0  0
 10 21  1  0  0  0
 10 22  1  0  0  0
 11 23  1  0  0  0
 11 24  1  0  0  0
 11 25  1  0  0  0
M  END
>  <i_m_Spin_multiplicity> (1)
1

>  <s_j_Task> (1)
Single Point

>  <s_j_QM_Method> (1)
DFT(b3lyp-d3)

>  <s_j_QM_Basis> (1)
cc-pvtz(-f)

>  <i_j_Number_of_canonical_orbitals> (1)
371

>  <i_j_Geometry_convergence_category> (1)
1

>  <r_j_Gas_Phase_Energy> (1)
-427.773739701965

>  <r_j_Final_Energy> (1)
-427.773739701965

>  <r_j_HOMO> (1)
-0.22585588013228

>  <r_j_LUMO> (1)
0.00168186932521578

>  <r_j_Polarizability> (1)
122.919913846322

>  <r_j_QM_Dipole_(debye)> (1)
0.729719983870079

>  <r_j_QM_Dipole_X_(debye)> (1)
-0.562986207857424

>  <r_j_QM_Dipole_Y_(debye)> (1)
-0.314516716353189

>  <r_j_QM_Dipole_Z_(debye)> (1)
0.341492342163149

>  <r_j_Lowest_Frequency_(cm-1)> (1)
110.148250965943

>  <r_j_Highest_Frequency_(cm-1)> (1)
3136.83803130455

>  <r_j_2nd_Lowest_Frequency_(cm-1)> (1)
166.332431313639

>  <i_j_Num_Negative_Frequencies> (1)
0

>  <r_j_Zero_Point_Energy_(kcal/mol)> (1)
137.352760444385

>  <r_j_Entropy_(cal/mol/K)_298.15K_1.00E+00atm> (1)
93.8403032583948

>  <r_j_Enthalpy_(kcal/mol)_298.15K_1.00E+00atm> (1)
6.5910415487502

>  <r_j_Free_Energy_(kcal/mol)_298.15K_1.00E+00atm> (1)
-21.3874448677402

>  <r_j_Internal_Energy_(kcal/mol)_298.15K_1.00E+00atm> (1)
5.99855595992292

>  <r_j_Heat_Capacity_(cal/mol/K)_298.15K_1.00E+00atm> (1)
39.2591707400975

>  <r_j_ln(Q)_298.15K_1.00E+00atm> (1)
36.0978313583509

>  <r_j_Total_Internal_Energy_(au)_298.15K_1.00E+00atm> (1)
-427.545294836577

>  <r_j_Total_Enthalpy_(au)_298.15K_1.00E+00atm> (1)
-427.544350650685

>  <r_j_Total_Free_Energy_(au)_298.15K_1.00E+00atm> (1)
-427.58893720715

>  <r_lp_tautomer_probability> (1)
1

>  <r_epik_Ionization_Penalty> (1)
  0.0000

>  <r_epik_Ionization_Penalty_Charging> (1)
  0.0000

>  <r_epik_Ionization_Penalty_Neutral> (1)
  0.0000

>  <r_epik_State_Penalty> (1)
  0.0000

>  <r_epik_Charging_Adjusted_Penalty> (1)
0

>  <i_epik_Tot_Q> (1)
0

>  <i_epik_Tot_abs_Q> (1)
0

>  <s_lp_Force_Field> (1)
S-OPLS

>  <r_lp_Energy> (1)
14.5432

>  <b_lp_Chiralities_Consistent> (1)
1

$$$$
