40997_Undecylcyclohexane
                    3D
 Schrodinger Suite 2021-3.
 51 51  0  0  1  0            999 V2000
   -5.3134    4.1076   -0.4234 C   0  0  0  0  0  0
   -4.6434    2.7344   -0.3174 C   0  0  0  0  0  0
   -3.1131    2.8140   -0.2617 C   0  0  0  0  0  0
   -2.4367    1.4426   -0.1568 C   0  0  0  0  0  0
   -0.9066    1.5154   -0.0991 C   0  0  0  0  0  0
   -0.2381    0.1397    0.0032 C   0  0  0  0  0  0
    1.2925    0.2044    0.0621 C   0  0  0  0  0  0
    1.9478   -1.1792    0.1664 C   0  0  0  0  0  0
    3.4841   -1.1634    0.1427 C   0  0  0  0  0  0
    4.1327   -0.4719    1.3497 C   0  0  0  0  0  0
    5.6645   -0.5530    1.3250 C   0  0  0  0  0  0
    6.3718    0.0329    2.5587 C   0  0  0  0  0  0
    7.8815   -0.2757    2.5229 C   0  0  0  0  0  0
    8.6253    0.2929    3.7401 C   0  0  0  0  0  0
    8.3923    1.8045    3.8781 C   0  0  0  0  0  0
    6.8916    2.1251    3.9300 C   0  0  0  0  0  0
    6.1490    1.5502    2.7132 C   0  0  0  0  0  0
   -6.4044    4.0221   -0.4610 H   0  0  0  0  0  0
   -4.9887    4.6357   -1.3274 H   0  0  0  0  0  0
   -5.0575    4.7384    0.4358 H   0  0  0  0  0  0
   -5.0104    2.2139    0.5778 H   0  0  0  0  0  0
   -4.9414    2.1125   -1.1726 H   0  0  0  0  0  0
   -2.7440    3.3352   -1.1569 H   0  0  0  0  0  0
   -2.8131    3.4353    0.5945 H   0  0  0  0  0  0
   -2.8088    0.9221    0.7373 H   0  0  0  0  0  0
   -2.7382    0.8231   -1.0137 H   0  0  0  0  0  0
   -0.5328    2.0360   -0.9925 H   0  0  0  0  0  0
   -0.6036    2.1323    0.7591 H   0  0  0  0  0  0
   -0.6134   -0.3803    0.8964 H   0  0  0  0  0  0
   -0.5432   -0.4766   -0.8547 H   0  0  0  0  0  0
    1.6707    0.7172   -0.8344 H   0  0  0  0  0  0
    1.5906    0.8266    0.9160 H   0  0  0  0  0  0
    1.6047   -1.6731    1.0871 H   0  0  0  0  0  0
    1.5868   -1.8024   -0.6631 H   0  0  0  0  0  0
    3.8485   -2.1984    0.0911 H   0  0  0  0  0  0
    3.8275   -0.6756   -0.7810 H   0  0  0  0  0  0
    3.8177    0.5772    1.3841 H   0  0  0  0  0  0
    3.7590   -0.9345    2.2750 H   0  0  0  0  0  0
    5.9585   -1.6074    1.2220 H   0  0  0  0  0  0
    6.0409   -0.0466    0.4236 H   0  0  0  0  0  0
    5.9536   -0.4577    3.4532 H   0  0  0  0  0  0
    8.0372   -1.3600    2.4555 H   0  0  0  0  0  0
    8.3073    0.1569    1.6049 H   0  0  0  0  0  0
    8.2670   -0.2110    4.6492 H   0  0  0  0  0  0
    9.6975    0.0754    3.6648 H   0  0  0  0  0  0
    8.8979    2.1907    4.7713 H   0  0  0  0  0  0
    8.8410    2.3182    3.0157 H   0  0  0  0  0  0
    6.4640    1.6950    4.8472 H   0  0  0  0  0  0
    6.7334    3.2085    3.9909 H   0  0  0  0  0  0
    6.5049    2.0513    1.8001 H   0  0  0  0  0  0
    5.0794    1.7738    2.7943 H   0  0  0  0  0  0
  1  2  1  0  0  0
  1 18  1  0  0  0
  1 19  1  0  0  0
  1 20  1  0  0  0
  2  3  1  0  0  0
  2 21  1  0  0  0
  2 22  1  0  0  0
  3  4  1  0  0  0
  3 23  1  0  0  0
  3 24  1  0  0  0
  4  5  1  0  0  0
  4 25  1  0  0  0
  4 26  1  0  0  0
  5  6  1  0  0  0
  5 27  1  0  0  0
  5 28  1  0  0  0
  6  7  1  0  0  0
  6 29  1  0  0  0
  6 30  1  0  0  0
  7  8  1  0  0  0
  7 31  1  0  0  0
  7 32  1  0  0  0
  8  9  1  0  0  0
  8 33  1  0  0  0
  8 34  1  0  0  0
  9 10  1  0  0  0
  9 35  1  0  0  0
  9 36  1  0  0  0
 10 11  1  0  0  0
 10 37  1  0  0  0
 10 38  1  0  0  0
 11 12  1  0  0  0
 11 39  1  0  0  0
 11 40  1  0  0  0
 12 17  1  0  0  0
 12 13  1  0  0  0
 12 41  1  0  0  0
 13 14  1  0  0  0
 13 42  1  0  0  0
 13 43  1  0  0  0
 14 15  1  0  0  0
 14 44  1  0  0  0
 14 45  1  0  0  0
 15 16  1  0  0  0
 15 46  1  0  0  0
 15 47  1  0  0  0
 16 17  1  0  0  0
 16 48  1  0  0  0
 16 49  1  0  0  0
 17 50  1  0  0  0
 17 51  1  0  0  0
M  END
>  <i_m_Spin_multiplicity> (1)
1

>  <s_j_Task> (1)
Single Point

>  <s_j_QM_Method> (1)
DFT(b3lyp-d3)

>  <s_j_QM_Basis> (1)
cc-pvtz(-f)

>  <i_j_Number_of_canonical_orbitals> (1)
691

>  <i_j_Geometry_convergence_category> (1)
3

>  <r_j_Gas_Phase_Energy> (1)
-668.596849983755

>  <r_j_Final_Energy> (1)
-668.596849983755

>  <r_j_HOMO> (1)
-0.290188403415908

>  <r_j_LUMO> (1)
0.0186577229266854

>  <r_j_Polarizability> (1)
206.011839107848

>  <r_j_QM_Dipole_(debye)> (1)
0.0785251943768822

>  <r_j_QM_Dipole_X_(debye)> (1)
-0.00979010302482712

>  <r_j_QM_Dipole_Y_(debye)> (1)
-0.0521392014657893

>  <r_j_QM_Dipole_Z_(debye)> (1)
0.0578952822361221

>  <r_j_Lowest_Frequency_(cm-1)> (1)
31.8529325521591

>  <r_j_Highest_Frequency_(cm-1)> (1)
3046.03819044867

>  <r_j_2nd_Lowest_Frequency_(cm-1)> (1)
61.5859256405698

>  <i_j_Num_Negative_Frequencies> (1)
0

>  <r_j_Zero_Point_Energy_(kcal/mol)> (1)
302.660201689763

>  <r_j_Entropy_(cal/mol/K)_298.15K_1.00E+00atm> (1)
139.155935911733

>  <r_j_Enthalpy_(kcal/mol)_298.15K_1.00E+00atm> (1)
12.5822858328275

>  <r_j_Free_Energy_(kcal/mol)_298.15K_1.00E+00atm> (1)
-28.9070564592556

>  <r_j_Internal_Energy_(kcal/mol)_298.15K_1.00E+00atm> (1)
11.9898002440002

>  <r_j_Heat_Capacity_(cal/mol/K)_298.15K_1.00E+00atm> (1)
75.4336730795025

>  <r_j_ln(Q)_298.15K_1.00E+00atm> (1)
48.7894676332504

>  <r_j_Total_Internal_Energy_(au)_298.15K_1.00E+00atm> (1)
-668.095423285073

>  <r_j_Total_Enthalpy_(au)_298.15K_1.00E+00atm> (1)
-668.094479099181

>  <r_j_Total_Free_Energy_(au)_298.15K_1.00E+00atm> (1)
-668.160596575133

>  <r_lp_tautomer_probability> (1)
1

>  <r_epik_Ionization_Penalty> (1)
  0.0000

>  <r_epik_Ionization_Penalty_Charging> (1)
  0.0000

>  <r_epik_Ionization_Penalty_Neutral> (1)
  0.0000

>  <r_epik_State_Penalty> (1)
  0.0000

>  <r_epik_Charging_Adjusted_Penalty> (1)
0

>  <i_epik_Tot_Q> (1)
0

>  <i_epik_Tot_abs_Q> (1)
0

>  <s_lp_Force_Field> (1)
S-OPLS

>  <r_lp_Energy> (1)
13.293685

>  <b_lp_Chiralities_Consistent> (1)
1

$$$$
