409_N-Oxynicotine
                    3D
 Schrodinger Suite 2021-3.
 28 29  0  0  1  0            999 V2000
   -0.0610    0.0810    0.1011 C   0  0  0  0  0  0
    1.4265    0.0568   -0.0278 N   0  3  1  0  0  0
    1.9556    0.8610   -1.1923 C   0  0  0  0  0  0
    3.4537    1.0289   -0.9076 C   0  0  0  0  0  0
    3.6222    0.8246    0.6239 C   0  0  0  0  0  0
    2.2122    0.6295    1.1990 C   0  0  0  0  0  0
    2.0235   -0.2258    2.4187 C   0  0  0  0  0  0
    1.0319    0.1205    3.3518 C   0  0  0  0  0  0
    0.7502   -0.5887    4.4432 N   0  0  0  0  0  0
    1.4667   -1.6987    4.6609 C   0  0  0  0  0  0
    2.4872   -2.1349    3.8106 C   0  0  0  0  0  0
    2.7730   -1.3867    2.6719 C   0  0  0  0  0  0
    1.8439   -1.2763   -0.2915 O   0  0  0  0  0  0
   -0.3863    1.1127    0.2398 H   0  0  0  0  0  0
   -0.3437   -0.5178    0.9670 H   0  0  0  0  0  0
   -0.4803   -0.3412   -0.8111 H   0  0  0  0  0  0
    1.7080    0.3193   -2.1052 H   0  0  0  0  0  0
    1.4115    1.8079   -1.1705 H   0  0  0  0  0  0
    4.0322    0.2873   -1.4593 H   0  0  0  0  0  0
    3.7840    2.0169   -1.2326 H   0  0  0  0  0  0
    4.2478   -0.0453    0.8230 H   0  0  0  0  0  0
    4.0917    1.6785    1.1153 H   0  0  0  0  0  0
    1.7282    1.5995    1.3528 H   0  0  0  0  0  0
    0.4435    1.0274    3.2081 H   0  0  0  0  0  0
    1.2180   -2.2616    5.5570 H   0  0  0  0  0  0
    3.0481   -3.0338    4.0424 H   0  0  0  0  0  0
    3.5758   -1.6961    2.0090 H   0  0  0  0  0  0
    1.6865   -1.7651    0.5407 H   0  0  0  0  0  0
  1  2  1  0  0  0
  1 14  1  0  0  0
  1 15  1  0  0  0
  1 16  1  0  0  0
  2  6  1  0  0  0
  2  3  1  0  0  0
  2 13  1  0  0  0
  3  4  1  0  0  0
  3 17  1  0  0  0
  3 18  1  0  0  0
  4  5  1  0  0  0
  4 19  1  0  0  0
  4 20  1  0  0  0
  5  6  1  0  0  0
  5 21  1  0  0  0
  5 22  1  0  0  0
  6  7  1  0  0  0
  6 23  1  0  0  0
  7 12  1  0  0  0
  7  8  2  0  0  0
  8  9  1  0  0  0
  8 24  1  0  0  0
  9 10  2  0  0  0
 10 11  1  0  0  0
 10 25  1  0  0  0
 11 12  2  0  0  0
 11 26  1  0  0  0
 12 27  1  0  0  0
 13 28  1  0  0  0
M  END
>  <i_m_Spin_multiplicity> (1)
1

>  <s_j_Task> (1)
Single Point

>  <s_j_QM_Method> (1)
DFT(b3lyp-d3)

>  <s_j_QM_Basis> (1)
cc-pvtz(-f)

>  <i_j_Number_of_canonical_orbitals> (1)
429

>  <i_j_Geometry_convergence_category> (1)
0

>  <r_j_Gas_Phase_Energy> (1)
-574.742066880106

>  <r_j_Final_Energy> (1)
-574.742066880106

>  <r_j_HOMO> (1)
-0.41824741754074

>  <r_j_LUMO> (1)
-0.206558624543532

>  <r_j_Polarizability> (1)
123.606785391789

>  <r_j_QM_Dipole_(debye)> (1)
4.83901566304228

>  <r_j_QM_Dipole_X_(debye)> (1)
-0.0774283415481021

>  <r_j_QM_Dipole_Y_(debye)> (1)
1.27236760999793

>  <r_j_QM_Dipole_Z_(debye)> (1)
-4.66810005292536

>  <r_j_Lowest_Frequency_(cm-1)> (1)
88.7679786426653

>  <r_j_Highest_Frequency_(cm-1)> (1)
3597.97432211132

>  <r_j_2nd_Lowest_Frequency_(cm-1)> (1)
102.349201510906

>  <i_j_Num_Negative_Frequencies> (1)
0

>  <r_j_Zero_Point_Energy_(kcal/mol)> (1)
153.083415956422

>  <r_j_Entropy_(cal/mol/K)_298.15K_1.00E+00atm> (1)
101.873127321303

>  <r_j_Enthalpy_(kcal/mol)_298.15K_1.00E+00atm> (1)
7.56766807586626

>  <r_j_Free_Energy_(kcal/mol)_298.15K_1.00E+00atm> (1)
-22.8058048349802

>  <r_j_Internal_Energy_(kcal/mol)_298.15K_1.00E+00atm> (1)
6.97518248703898

>  <r_j_Heat_Capacity_(cal/mol/K)_298.15K_1.00E+00atm> (1)
45.5584539468994

>  <r_j_ln(Q)_298.15K_1.00E+00atm> (1)
38.4917460695044

>  <r_j_Total_Internal_Energy_(au)_298.15K_1.00E+00atm> (1)
-574.486997265868

>  <r_j_Total_Enthalpy_(au)_298.15K_1.00E+00atm> (1)
-574.486053079976

>  <r_j_Total_Free_Energy_(au)_298.15K_1.00E+00atm> (1)
-574.534456290386

>  <r_epik_Ionization_Penalty> (1)
  2.4727

>  <r_epik_Ionization_Penalty_Charging> (1)
  0.0000

>  <r_epik_Ionization_Penalty_Neutral> (1)
  2.4727

>  <r_epik_State_Penalty> (1)
  2.6323

>  <r_epik_Charging_Adjusted_Penalty> (1)
2.6323

>  <i_epik_Tot_Q> (1)
1

>  <i_epik_Tot_abs_Q> (1)
1

>  <s_lp_Force_Field> (1)
S-OPLS

>  <r_lp_Energy> (1)
25.5393

>  <b_lp_Chiralities_Consistent> (1)
1

>  <s_epik_Chemistry_Notes> (1)
This compound has a N-S or N-O group and may undergo hydrolysis at high or low pH.

$$$$
