4115_Methoxychlor
                    3D
 Schrodinger Suite 2021-3.
 36 37  0  0  1  0            999 V2000
   -5.1773    0.6439   -0.2140 C   0  0  0  0  0  0
   -4.2264   -0.3689    0.0781 O   0  0  0  0  0  0
   -2.9018   -0.0560   -0.0142 C   0  0  0  0  0  0
   -2.0112   -1.0957    0.2840 C   0  0  0  0  0  0
   -0.6441   -0.8774    0.2156 C   0  0  0  0  0  0
   -0.1139    0.3722   -0.1438 C   0  0  0  0  0  0
   -1.0145    1.3981   -0.4372 C   0  0  0  0  0  0
   -2.3959    1.1950   -0.3789 C   0  0  0  0  0  0
    1.4060    0.5110   -0.1142 C   0  0  0  0  0  0
    1.9288    0.9763    1.2414 C   0  0  0  0  0  0
    3.0216    0.3232    1.8308 C   0  0  0  0  0  0
    3.5108    0.7106    3.0697 C   0  0  0  0  0  0
    2.9120    1.7738    3.7579 C   0  0  0  0  0  0
    1.8152    2.4327    3.1899 C   0  0  0  0  0  0
    1.3343    2.0253    1.9455 C   0  0  0  0  0  0
    3.4636    2.0773    4.9676 O   0  0  0  0  0  0
    2.8974    3.1407    5.7190 C   0  0  0  0  0  0
    2.0375    1.2936   -1.3105 C   0  0  0  0  0  0
    1.3397    0.7042   -2.8695 Cl  0  0  0  0  0  0
    1.8127    3.0851   -1.2103 Cl  0  0  0  0  0  0
    3.8242    0.9802   -1.3551 Cl  0  0  0  0  0  0
   -6.1577    0.1846   -0.0783 H   0  0  0  0  0  0
   -5.0858    1.0001   -1.2486 H   0  0  0  0  0  0
   -5.0819    1.4988    0.4685 H   0  0  0  0  0  0
   -2.4154   -2.0635    0.5612 H   0  0  0  0  0  0
    0.0319   -1.6951    0.4523 H   0  0  0  0  0  0
   -0.6543    2.3754   -0.7326 H   0  0  0  0  0  0
   -3.0583    2.0166   -0.6231 H   0  0  0  0  0  0
    1.7997   -0.4970   -0.2802 H   0  0  0  0  0  0
    3.4990   -0.4996    1.3071 H   0  0  0  0  0  0
    4.3537    0.2045    3.5281 H   0  0  0  0  0  0
    1.3258    3.2502    3.7051 H   0  0  0  0  0  0
    0.4709    2.5308    1.5279 H   0  0  0  0  0  0
    3.4870    3.2093    6.6346 H   0  0  0  0  0  0
    1.8496    2.9404    5.9791 H   0  0  0  0  0  0
    2.9565    4.0951    5.1796 H   0  0  0  0  0  0
  1  2  1  0  0  0
  1 22  1  0  0  0
  1 23  1  0  0  0
  1 24  1  0  0  0
  2  3  1  0  0  0
  3  8  1  0  0  0
  3  4  2  0  0  0
  4  5  1  0  0  0
  4 25  1  0  0  0
  5  6  2  0  0  0
  5 26  1  0  0  0
  6  7  1  0  0  0
  6  9  1  0  0  0
  7  8  2  0  0  0
  7 27  1  0  0  0
  8 28  1  0  0  0
  9 10  1  0  0  0
  9 18  1  0  0  0
  9 29  1  0  0  0
 10 15  1  0  0  0
 10 11  2  0  0  0
 11 12  1  0  0  0
 11 30  1  0  0  0
 12 13  2  0  0  0
 12 31  1  0  0  0
 13 14  1  0  0  0
 13 16  1  0  0  0
 14 15  2  0  0  0
 14 32  1  0  0  0
 15 33  1  0  0  0
 16 17  1  0  0  0
 17 34  1  0  0  0
 17 35  1  0  0  0
 17 36  1  0  0  0
 18 19  1  0  0  0
 18 20  1  0  0  0
 18 21  1  0  0  0
M  END
>  <i_m_Spin_multiplicity> (1)
1

>  <s_j_Task> (1)
Single Point

>  <s_j_QM_Method> (1)
DFT(b3lyp-d3)

>  <s_j_QM_Basis> (1)
cc-pvtz(-f)

>  <i_j_Number_of_canonical_orbitals> (1)
616

>  <i_j_Geometry_convergence_category> (1)
3

>  <r_j_Gas_Phase_Energy> (1)
-2150.12395460698

>  <r_j_Final_Energy> (1)
-2150.12395460698

>  <r_j_HOMO> (1)
-0.221051927048567

>  <r_j_LUMO> (1)
-0.0335680184926828

>  <r_j_Polarizability> (1)
232.227808075173

>  <r_j_QM_Dipole_(debye)> (1)
3.55114227960175

>  <r_j_QM_Dipole_X_(debye)> (1)
-2.45163741307823

>  <r_j_QM_Dipole_Y_(debye)> (1)
1.22490463258246

>  <r_j_QM_Dipole_Z_(debye)> (1)
2.25825023543632

>  <r_j_Lowest_Frequency_(cm-1)> (1)
39.2957640277505

>  <r_j_Highest_Frequency_(cm-1)> (1)
3176.75469255166

>  <r_j_2nd_Lowest_Frequency_(cm-1)> (1)
57.3061688462458

>  <i_j_Num_Negative_Frequencies> (1)
0

>  <r_j_Zero_Point_Energy_(kcal/mol)> (1)
171.824883477914

>  <r_j_Entropy_(cal/mol/K)_298.15K_1.00E+00atm> (1)
140.844600790191

>  <r_j_Enthalpy_(kcal/mol)_298.15K_1.00E+00atm> (1)
12.7049207040243

>  <r_j_Free_Energy_(kcal/mol)_298.15K_1.00E+00atm> (1)
-29.2878970215711

>  <r_j_Internal_Energy_(kcal/mol)_298.15K_1.00E+00atm> (1)
12.112435115197

>  <r_j_Heat_Capacity_(cal/mol/K)_298.15K_1.00E+00atm> (1)
74.8961393601809

>  <r_j_ln(Q)_298.15K_1.00E+00atm> (1)
49.4322521490212

>  <r_j_Total_Internal_Energy_(au)_298.15K_1.00E+00atm> (1)
-2149.83083182974

>  <r_j_Total_Enthalpy_(au)_298.15K_1.00E+00atm> (1)
-2149.82988764385

>  <r_j_Total_Free_Energy_(au)_298.15K_1.00E+00atm> (1)
-2149.89680745898

>  <r_lp_tautomer_probability> (1)
1

>  <r_epik_Ionization_Penalty> (1)
  0.0000

>  <r_epik_Ionization_Penalty_Charging> (1)
  0.0000

>  <r_epik_Ionization_Penalty_Neutral> (1)
  0.0000

>  <r_epik_State_Penalty> (1)
  0.0000

>  <r_epik_Charging_Adjusted_Penalty> (1)
0

>  <i_epik_Tot_Q> (1)
0

>  <i_epik_Tot_abs_Q> (1)
0

>  <s_lp_Force_Field> (1)
S-OPLS

>  <r_lp_Energy> (1)
31.524

>  <b_lp_Chiralities_Consistent> (1)
1

$$$$
