4133_Methyl salicylate (an ester)
                    3D
 Schrodinger Suite 2021-3.
 19 19  0  0  1  0            999 V2000
   -1.9209   -1.2908    0.0000 C   0  0  0  0  0  0
   -0.4892   -1.2079    0.0001 O   0  0  0  0  0  0
    0.0063    0.0616    0.0000 C   0  0  0  0  0  0
   -0.7165    1.0357   -0.0001 O   0  0  0  0  0  0
    1.4956    0.0641    0.0000 C   0  0  0  0  0  0
    2.2117   -1.1453   -0.0001 C   0  0  0  0  0  0
    3.6006   -1.1759    0.0000 C   0  0  0  0  0  0
    4.3088    0.0275    0.0000 C   0  0  0  0  0  0
    3.6276    1.2383    0.0000 C   0  0  0  0  0  0
    2.2253    1.2759    0.0000 C   0  0  0  0  0  0
    1.5645    2.4598    0.0000 O   0  0  0  0  0  0
   -2.1543   -2.3558    0.0002 H   0  0  0  0  0  0
   -2.3371   -0.8056   -0.8872 H   0  0  0  0  0  0
   -2.3372   -0.8054    0.8871 H   0  0  0  0  0  0
    1.6491   -2.0708   -0.0001 H   0  0  0  0  0  0
    4.1261   -2.1251   -0.0001 H   0  0  0  0  0  0
    5.3951    0.0255    0.0000 H   0  0  0  0  0  0
    4.1787    2.1766    0.0001 H   0  0  0  0  0  0
    2.2144    3.1756    0.0000 H   0  0  0  0  0  0
  1  2  1  0  0  0
  1 12  1  0  0  0
  1 13  1  0  0  0
  1 14  1  0  0  0
  2  3  1  0  0  0
  3  4  2  0  0  0
  3  5  1  0  0  0
  5 10  1  0  0  0
  5  6  2  0  0  0
  6  7  1  0  0  0
  6 15  1  0  0  0
  7  8  2  0  0  0
  7 16  1  0  0  0
  8  9  1  0  0  0
  8 17  1  0  0  0
  9 10  2  0  0  0
  9 18  1  0  0  0
 10 11  1  0  0  0
 11 19  1  0  0  0
M  END
>  <i_m_Spin_multiplicity> (1)
1

>  <s_j_Task> (1)
Single Point

>  <s_j_QM_Method> (1)
DFT(b3lyp-d3)

>  <s_j_QM_Basis> (1)
cc-pvtz(-f)

>  <i_j_Number_of_canonical_orbitals> (1)
319

>  <i_j_Geometry_convergence_category> (1)
3

>  <r_j_Gas_Phase_Energy> (1)
-535.537795602784

>  <r_j_Final_Energy> (1)
-535.537795602784

>  <r_j_HOMO> (1)
-0.238190706319017

>  <r_j_LUMO> (1)
-0.0519137248934028

>  <r_j_Polarizability> (1)
101.950167942747

>  <r_j_QM_Dipole_(debye)> (1)
2.35611706216177

>  <r_j_QM_Dipole_X_(debye)> (1)
2.26666838185359

>  <r_j_QM_Dipole_Y_(debye)> (1)
-0.643041254736477

>  <r_j_QM_Dipole_Z_(debye)> (1)
4.49665745871215e-05

>  <r_j_Lowest_Frequency_(cm-1)> (1)
61.2413161970076

>  <r_j_Highest_Frequency_(cm-1)> (1)
3757.38955570294

>  <r_j_2nd_Lowest_Frequency_(cm-1)> (1)
119.287740054729

>  <i_j_Num_Negative_Frequencies> (1)
0

>  <r_j_Zero_Point_Energy_(kcal/mol)> (1)
92.3778137678838

>  <r_j_Entropy_(cal/mol/K)_298.15K_1.00E+00atm> (1)
94.6507355172404

>  <r_j_Enthalpy_(kcal/mol)_298.15K_1.00E+00atm> (1)
6.52920351393112

>  <r_j_Free_Energy_(kcal/mol)_298.15K_1.00E+00atm> (1)
-21.6909132805341

>  <r_j_Internal_Energy_(kcal/mol)_298.15K_1.00E+00atm> (1)
5.93671792510385

>  <r_j_Heat_Capacity_(cal/mol/K)_298.15K_1.00E+00atm> (1)
36.4174984702703

>  <r_j_ln(Q)_298.15K_1.00E+00atm> (1)
36.610026791483

>  <r_j_Total_Internal_Energy_(au)_298.15K_1.00E+00atm> (1)
-535.381121422723

>  <r_j_Total_Enthalpy_(au)_298.15K_1.00E+00atm> (1)
-535.38017723683

>  <r_j_Total_Free_Energy_(au)_298.15K_1.00E+00atm> (1)
-535.425148855816

>  <r_epik_Ionization_Penalty> (1)
  0.0980

>  <r_epik_Ionization_Penalty_Charging> (1)
  0.0000

>  <r_epik_Ionization_Penalty_Neutral> (1)
  0.0980

>  <r_epik_State_Penalty> (1)
  0.0881

>  <r_epik_Charging_Adjusted_Penalty> (1)
0.0880668

>  <i_epik_Tot_Q> (1)
0

>  <i_epik_Tot_abs_Q> (1)
0

>  <s_lp_Force_Field> (1)
S-OPLS

>  <r_lp_Energy> (1)
9.27125

>  <b_lp_Chiralities_Consistent> (1)
1

>  <s_epik_Chemistry_Notes> (1)
This compound has an ester and may undergo hydrolysis at high or low pH.

$$$$
