41359_22,29,30-trisnorneohopane
                    3D
 Schrodinger Suite 2021-3.
 73 77  0  0  1  0            999 V2000
   -0.1953    0.3359   -0.0171 C   0  0  0  0  0  0
    1.3258    0.0740    0.0403 C   0  0  0  0  0  0
    2.0310    0.8157   -1.1212 C   0  0  0  0  0  0
    1.8312    0.1445   -2.4826 C   0  0  0  0  0  0
    2.3051   -1.3156   -2.4622 C   0  0  0  0  0  0
    1.6173   -2.1832   -1.3759 C   0  0  0  0  0  0
    1.7646   -1.4354   -0.0083 C   0  0  0  0  0  0
    1.2355   -2.2601    1.1838 C   0  0  0  0  0  0
    1.4468   -3.7846    1.0460 C   0  0  0  0  0  0
    2.6379   -4.1703    0.1388 C   0  0  0  0  0  0
    2.2641   -3.6557   -1.2977 C   0  0  0  0  0  0
    3.3824   -3.9836   -2.3052 C   0  0  0  0  0  0
    3.6360   -5.4992   -2.3608 C   0  0  0  0  0  0
    3.9595   -6.0745   -0.9761 C   0  0  0  0  0  0
    2.8297   -5.7605    0.0771 C   0  0  0  0  0  0
    3.2495   -6.3376    1.4667 C   0  0  0  0  0  0
    3.6837   -7.8232    1.4403 C   0  0  0  0  0  0
    4.7925   -8.0721    0.4059 C   0  0  0  0  0  0
    4.3035   -7.5653   -0.9780 C   0  0  0  0  0  0
    5.3565   -8.1087   -1.9590 C   0  0  0  0  0  0
    5.7469   -9.4944   -1.3516 C   0  0  0  0  0  0
    5.0938   -9.5471    0.0645 C   0  0  0  0  0  0
    6.1054   -7.4033    0.8742 C   0  0  0  0  0  0
    1.5039   -6.4706   -0.3038 C   0  0  0  0  0  0
    3.9438   -3.5097    0.6882 C   0  0  0  0  0  0
    0.1385   -2.4013   -1.7782 C   0  0  0  0  0  0
    1.8331    0.6883    1.3657 C   0  0  0  0  0  0
   -0.3956    1.3807    0.2473 H   0  0  0  0  0  0
   -0.7455   -0.2884    0.6929 H   0  0  0  0  0  0
   -0.6251    0.1701   -1.0053 H   0  0  0  0  0  0
    1.6861    1.8576   -1.1510 H   0  0  0  0  0  0
    3.1090    0.8529   -0.9062 H   0  0  0  0  0  0
    0.7781    0.1996   -2.7821 H   0  0  0  0  0  0
    2.3879    0.6942   -3.2514 H   0  0  0  0  0  0
    2.1465   -1.7589   -3.4517 H   0  0  0  0  0  0
    3.3890   -1.3188   -2.2895 H   0  0  0  0  0  0
    2.8467   -1.3589    0.1330 H   0  0  0  0  0  0
    1.7291   -1.9051    2.0933 H   0  0  0  0  0  0
    0.1666   -2.0734    1.3354 H   0  0  0  0  0  0
    1.5663   -4.2202    2.0433 H   0  0  0  0  0  0
    0.5388   -4.2271    0.6278 H   0  0  0  0  0  0
    1.4373   -4.2992   -1.6044 H   0  0  0  0  0  0
    3.1149   -3.6363   -3.3073 H   0  0  0  0  0  0
    4.3156   -3.4707   -2.0406 H   0  0  0  0  0  0
    2.7600   -6.0053   -2.7889 H   0  0  0  0  0  0
    4.4691   -5.7063   -3.0431 H   0  0  0  0  0  0
    4.8660   -5.5524   -0.6484 H   0  0  0  0  0  0
    4.0668   -5.7462    1.8878 H   0  0  0  0  0  0
    2.4152   -6.2318    2.1691 H   0  0  0  0  0  0
    4.0160   -8.1172    2.4445 H   0  0  0  0  0  0
    2.8235   -8.4624    1.2058 H   0  0  0  0  0  0
    3.3823   -8.1247   -1.1953 H   0  0  0  0  0  0
    4.9686   -8.1957   -2.9782 H   0  0  0  0  0  0
    6.2236   -7.4395   -2.0093 H   0  0  0  0  0  0
    5.3925  -10.3195   -1.9767 H   0  0  0  0  0  0
    6.8342   -9.5999   -1.2877 H   0  0  0  0  0  0
    5.7342  -10.0360    0.8067 H   0  0  0  0  0  0
    4.1545  -10.1121    0.0278 H   0  0  0  0  0  0
    6.9279   -7.5679    0.1727 H   0  0  0  0  0  0
    6.4071   -7.8328    1.8360 H   0  0  0  0  0  0
    6.0103   -6.3243    1.0155 H   0  0  0  0  0  0
    1.6408   -7.5493   -0.3895 H   0  0  0  0  0  0
    1.0817   -6.1339   -1.2513 H   0  0  0  0  0  0
    0.7461   -6.3150    0.4682 H   0  0  0  0  0  0
    4.8004   -4.1841    0.6794 H   0  0  0  0  0  0
    3.8166   -3.1773    1.7226 H   0  0  0  0  0  0
    4.2470   -2.6396    0.1042 H   0  0  0  0  0  0
   -0.4186   -2.9269   -0.9966 H   0  0  0  0  0  0
    0.0881   -3.0127   -2.6865 H   0  0  0  0  0  0
   -0.3919   -1.4737   -1.9880 H   0  0  0  0  0  0
    2.8920    0.4608    1.5345 H   0  0  0  0  0  0
    1.2677    0.3242    2.2290 H   0  0  0  0  0  0
    1.7261    1.7789    1.3419 H   0  0  0  0  0  0
  1  2  1  0  0  0
  1 28  1  0  0  0
  1 29  1  0  0  0
  1 30  1  0  0  0
  2  7  1  0  0  0
  2  3  1  0  0  0
  2 27  1  0  0  0
  3  4  1  0  0  0
  3 31  1  0  0  0
  3 32  1  0  0  0
  4  5  1  0  0  0
  4 33  1  0  0  0
  4 34  1  0  0  0
  5  6  1  0  0  0
  5 35  1  0  0  0
  5 36  1  0  0  0
  6 11  1  0  0  0
  6  7  1  0  0  0
  6 26  1  0  0  0
  7  8  1  0  0  0
  7 37  1  0  0  0
  8  9  1  0  0  0
  8 38  1  0  0  0
  8 39  1  0  0  0
  9 10  1  0  0  0
  9 40  1  0  0  0
  9 41  1  0  0  0
 10 15  1  0  0  0
 10 11  1  0  0  0
 10 25  1  0  0  0
 11 12  1  0  0  0
 11 42  1  0  0  0
 12 13  1  0  0  0
 12 43  1  0  0  0
 12 44  1  0  0  0
 13 14  1  0  0  0
 13 45  1  0  0  0
 13 46  1  0  0  0
 14 19  1  0  0  0
 14 15  1  0  0  0
 14 47  1  0  0  0
 15 16  1  0  0  0
 15 24  1  0  0  0
 16 17  1  0  0  0
 16 48  1  0  0  0
 16 49  1  0  0  0
 17 18  1  0  0  0
 17 50  1  0  0  0
 17 51  1  0  0  0
 18 22  1  0  0  0
 18 19  1  0  0  0
 18 23  1  0  0  0
 19 20  1  0  0  0
 19 52  1  0  0  0
 20 21  1  0  0  0
 20 53  1  0  0  0
 20 54  1  0  0  0
 21 22  1  0  0  0
 21 55  1  0  0  0
 21 56  1  0  0  0
 22 57  1  0  0  0
 22 58  1  0  0  0
 23 59  1  0  0  0
 23 60  1  0  0  0
 23 61  1  0  0  0
 24 62  1  0  0  0
 24 63  1  0  0  0
 24 64  1  0  0  0
 25 65  1  0  0  0
 25 66  1  0  0  0
 25 67  1  0  0  0
 26 68  1  0  0  0
 26 69  1  0  0  0
 26 70  1  0  0  0
 27 71  1  0  0  0
 27 72  1  0  0  0
 27 73  1  0  0  0
M  END
>  <i_m_Spin_multiplicity> (1)
1

>  <s_j_Task> (1)
Single Point

>  <s_j_QM_Method> (1)
DFT(b3lyp-d3)

>  <s_j_QM_Basis> (1)
cc-pvtz(-f)

>  <i_j_Number_of_canonical_orbitals> (1)
1014

>  <i_j_Geometry_convergence_category> (1)
3

>  <r_j_Gas_Phase_Energy> (1)
-1057.00801487122

>  <r_j_Final_Energy> (1)
-1057.00801487122

>  <r_j_HOMO> (1)
-0.27631212484192

>  <r_j_LUMO> (1)
-0.0135046239908189

>  <r_j_Polarizability> (1)
297.020071613891

>  <r_j_QM_Dipole_(debye)> (1)
0.0695363711248264

>  <r_j_QM_Dipole_X_(debye)> (1)
0.0408755070531382

>  <r_j_QM_Dipole_Y_(debye)> (1)
-0.0402388055690696

>  <r_j_QM_Dipole_Z_(debye)> (1)
-0.0393107918863644

>  <r_j_Lowest_Frequency_(cm-1)> (1)
59.0175740585515

>  <r_j_Highest_Frequency_(cm-1)> (1)
3109.35453150047

>  <r_j_2nd_Lowest_Frequency_(cm-1)> (1)
68.7048346238162

>  <i_j_Num_Negative_Frequencies> (1)
0

>  <r_j_Zero_Point_Energy_(kcal/mol)> (1)
428.541067841569

>  <r_j_Entropy_(cal/mol/K)_298.15K_1.00E+00atm> (1)
154.723391214514

>  <r_j_Enthalpy_(kcal/mol)_298.15K_1.00E+00atm> (1)
16.1138316769599

>  <r_j_Free_Energy_(kcal/mol)_298.15K_1.00E+00atm> (1)
-30.0169474136475

>  <r_j_Internal_Energy_(kcal/mol)_298.15K_1.00E+00atm> (1)
15.5213460881326

>  <r_j_Heat_Capacity_(cal/mol/K)_298.15K_1.00E+00atm> (1)
110.991846067451

>  <r_j_ln(Q)_298.15K_1.00E+00atm> (1)
50.6627468746725

>  <r_j_Total_Internal_Energy_(au)_298.15K_1.00E+00atm> (1)
-1056.3003563654

>  <r_j_Total_Enthalpy_(au)_298.15K_1.00E+00atm> (1)
-1056.29941217951

>  <r_j_Total_Free_Energy_(au)_298.15K_1.00E+00atm> (1)
-1056.37292625586

>  <r_lp_tautomer_probability> (1)
1

>  <r_epik_Ionization_Penalty> (1)
  0.0000

>  <r_epik_Ionization_Penalty_Charging> (1)
  0.0000

>  <r_epik_Ionization_Penalty_Neutral> (1)
  0.0000

>  <r_epik_State_Penalty> (1)
  0.0000

>  <r_epik_Charging_Adjusted_Penalty> (1)
0

>  <i_epik_Tot_Q> (1)
0

>  <i_epik_Tot_abs_Q> (1)
0

>  <s_lp_Force_Field> (1)
S-OPLS

>  <r_lp_Energy> (1)
98.8959

>  <b_lp_Chiralities_Consistent> (1)
1

$$$$
