41517_Methyl heptacosanoate
                    3D
 Schrodinger Suite 2021-3.
 86 85  0  0  1  0            999 V2000
  -13.9108   -2.0972    7.9768 C   0  0  0  0  0  0
  -13.2248   -1.3824    6.8090 C   0  0  0  0  0  0
  -11.7044   -1.5817    6.7894 C   0  0  0  0  0  0
  -11.0150   -0.8678    5.6213 C   0  0  0  0  0  0
   -9.4941   -1.0590    5.5915 C   0  0  0  0  0  0
   -8.8204   -0.3391    4.4176 C   0  0  0  0  0  0
   -7.2983   -0.5177    4.3726 C   0  0  0  0  0  0
   -6.6428    0.2100    3.1930 C   0  0  0  0  0  0
   -5.1197    0.0457    3.1330 C   0  0  0  0  0  0
   -4.4809    0.7823    1.9497 C   0  0  0  0  0  0
   -2.9564    0.6336    1.8805 C   0  0  0  0  0  0
   -2.3363    1.3782    0.6900 C   0  0  0  0  0  0
   -0.8016    1.3323    0.6348 C   0  0  0  0  0  0
   -0.2111   -0.0665    0.4107 C   0  0  0  0  0  0
    1.3165   -0.0576    0.2789 C   0  0  0  0  0  0
    1.9225   -1.4502    0.0677 C   0  0  0  0  0  0
    3.4525   -1.4269   -0.0533 C   0  0  0  0  0  0
    4.1069   -2.8130   -0.1604 C   0  0  0  0  0  0
    3.7761   -3.5826   -1.4466 C   0  0  0  0  0  0
    4.4950   -4.9344   -1.5334 C   0  0  0  0  0  0
    4.1986   -5.7102   -2.8224 C   0  0  0  0  0  0
    4.9067   -7.0712   -2.8746 C   0  0  0  0  0  0
    4.5975   -7.9086   -4.1255 C   0  0  0  0  0  0
    5.1279   -7.3106   -5.4351 C   0  0  0  0  0  0
    4.8808   -8.2221   -6.6441 C   0  0  0  0  0  0
    5.4152   -7.6475   -7.9592 C   0  0  0  0  0  0
    4.6440   -6.4300   -8.4312 C   0  0  0  0  0  0
    3.5841   -6.0442   -7.9854 O   0  0  0  0  0  0
    5.2850   -5.8188   -9.4541 O   0  0  0  0  0  0
    4.6132   -4.6683   -9.9967 C   0  0  0  0  0  0
  -14.9943   -1.9381    7.9664 H   0  0  0  0  0  0
  -13.5298   -1.7357    8.9390 H   0  0  0  0  0  0
  -13.7320   -3.1780    7.9373 H   0  0  0  0  0  0
  -13.6477   -1.7392    5.8598 H   0  0  0  0  0  0
  -13.4470   -0.3074    6.8540 H   0  0  0  0  0  0
  -11.2789   -1.2242    7.7382 H   0  0  0  0  0  0
  -11.4797   -2.6572    6.7440 H   0  0  0  0  0  0
  -11.4435   -1.2262    4.6743 H   0  0  0  0  0  0
  -11.2438    0.2067    5.6678 H   0  0  0  0  0  0
   -9.0626   -0.6989    6.5365 H   0  0  0  0  0  0
   -9.2622   -2.1326    5.5428 H   0  0  0  0  0  0
   -9.2552   -0.7000    3.4743 H   0  0  0  0  0  0
   -9.0573    0.7334    4.4671 H   0  0  0  0  0  0
   -6.8604   -0.1552    5.3137 H   0  0  0  0  0  0
   -7.0578   -1.5892    4.3198 H   0  0  0  0  0  0
   -7.0834   -0.1536    2.2535 H   0  0  0  0  0  0
   -6.8892    1.2802    3.2464 H   0  0  0  0  0  0
   -4.6765    0.4099    4.0711 H   0  0  0  0  0  0
   -4.8698   -1.0234    3.0755 H   0  0  0  0  0  0
   -4.9238    0.4150    1.0127 H   0  0  0  0  0  0
   -4.7388    1.8498    2.0062 H   0  0  0  0  0  0
   -2.5107    1.0081    2.8136 H   0  0  0  0  0  0
   -2.7027   -0.4333    1.8297 H   0  0  0  0  0  0
   -2.7451    0.9685   -0.2450 H   0  0  0  0  0  0
   -2.6583    2.4280    0.7258 H   0  0  0  0  0  0
   -0.4558    1.9936   -0.1715 H   0  0  0  0  0  0
   -0.3932    1.7518    1.5657 H   0  0  0  0  0  0
   -0.4941   -0.7298    1.2386 H   0  0  0  0  0  0
   -0.6534   -0.5055   -0.4954 H   0  0  0  0  0  0
    1.6056    0.5952   -0.5574 H   0  0  0  0  0  0
    1.7547    0.3955    1.1800 H   0  0  0  0  0  0
    1.6368   -2.1021    0.9061 H   0  0  0  0  0  0
    1.4811   -1.9005   -0.8310 H   0  0  0  0  0  0
    3.7381   -0.8213   -0.9256 H   0  0  0  0  0  0
    3.8653   -0.9079    0.8226 H   0  0  0  0  0  0
    5.1972   -2.6967   -0.0925 H   0  0  0  0  0  0
    3.8133   -3.4189    0.7091 H   0  0  0  0  0  0
    2.6932   -3.7486   -1.5182 H   0  0  0  0  0  0
    4.0474   -2.9670   -2.3166 H   0  0  0  0  0  0
    5.5798   -4.7748   -1.4489 H   0  0  0  0  0  0
    4.2133   -5.5490   -0.6661 H   0  0  0  0  0  0
    3.1140   -5.8636   -2.9170 H   0  0  0  0  0  0
    4.4938   -5.0984   -3.6846 H   0  0  0  0  0  0
    5.9932   -6.9171   -2.8018 H   0  0  0  0  0  0
    4.6238   -7.6477   -1.9832 H   0  0  0  0  0  0
    5.0264   -8.9118   -3.9949 H   0  0  0  0  0  0
    3.5107   -8.0511   -4.2085 H   0  0  0  0  0  0
    4.6535   -6.3422   -5.6247 H   0  0  0  0  0  0
    6.2073   -7.1220   -5.3359 H   0  0  0  0  0  0
    5.3515   -9.1981   -6.4715 H   0  0  0  0  0  0
    3.8045   -8.4005   -6.7490 H   0  0  0  0  0  0
    6.4741   -7.3745   -7.8815 H   0  0  0  0  0  0
    5.3579   -8.3893   -8.7662 H   0  0  0  0  0  0
    5.2557   -4.3005  -10.7968 H   0  0  0  0  0  0
    4.4793   -3.9024   -9.2282 H   0  0  0  0  0  0
    3.6306   -4.9442  -10.3889 H   0  0  0  0  0  0
  1  2  1  0  0  0
  1 31  1  0  0  0
  1 32  1  0  0  0
  1 33  1  0  0  0
  2  3  1  0  0  0
  2 34  1  0  0  0
  2 35  1  0  0  0
  3  4  1  0  0  0
  3 36  1  0  0  0
  3 37  1  0  0  0
  4  5  1  0  0  0
  4 38  1  0  0  0
  4 39  1  0  0  0
  5  6  1  0  0  0
  5 40  1  0  0  0
  5 41  1  0  0  0
  6  7  1  0  0  0
  6 42  1  0  0  0
  6 43  1  0  0  0
  7  8  1  0  0  0
  7 44  1  0  0  0
  7 45  1  0  0  0
  8  9  1  0  0  0
  8 46  1  0  0  0
  8 47  1  0  0  0
  9 10  1  0  0  0
  9 48  1  0  0  0
  9 49  1  0  0  0
 10 11  1  0  0  0
 10 50  1  0  0  0
 10 51  1  0  0  0
 11 12  1  0  0  0
 11 52  1  0  0  0
 11 53  1  0  0  0
 12 13  1  0  0  0
 12 54  1  0  0  0
 12 55  1  0  0  0
 13 14  1  0  0  0
 13 56  1  0  0  0
 13 57  1  0  0  0
 14 15  1  0  0  0
 14 58  1  0  0  0
 14 59  1  0  0  0
 15 16  1  0  0  0
 15 60  1  0  0  0
 15 61  1  0  0  0
 16 17  1  0  0  0
 16 62  1  0  0  0
 16 63  1  0  0  0
 17 18  1  0  0  0
 17 64  1  0  0  0
 17 65  1  0  0  0
 18 19  1  0  0  0
 18 66  1  0  0  0
 18 67  1  0  0  0
 19 20  1  0  0  0
 19 68  1  0  0  0
 19 69  1  0  0  0
 20 21  1  0  0  0
 20 70  1  0  0  0
 20 71  1  0  0  0
 21 22  1  0  0  0
 21 72  1  0  0  0
 21 73  1  0  0  0
 22 23  1  0  0  0
 22 74  1  0  0  0
 22 75  1  0  0  0
 23 24  1  0  0  0
 23 76  1  0  0  0
 23 77  1  0  0  0
 24 25  1  0  0  0
 24 78  1  0  0  0
 24 79  1  0  0  0
 25 26  1  0  0  0
 25 80  1  0  0  0
 25 81  1  0  0  0
 26 27  1  0  0  0
 26 82  1  0  0  0
 26 83  1  0  0  0
 27 28  2  0  0  0
 27 29  1  0  0  0
 29 30  1  0  0  0
 30 84  1  0  0  0
 30 85  1  0  0  0
 30 86  1  0  0  0
M  END
>  <i_m_Spin_multiplicity> (1)
1

>  <s_j_Task> (1)
Single Point

>  <s_j_QM_Method> (1)
DFT(b3lyp-d3)

>  <s_j_QM_Basis> (1)
cc-pvtz(-f)

>  <i_j_Number_of_canonical_orbitals> (1)
1185

>  <i_j_Geometry_convergence_category> (1)
3

>  <r_j_Gas_Phase_Energy> (1)
-1251.7285198407

>  <r_j_Final_Energy> (1)
-1251.7285198407

>  <r_j_HOMO> (1)
-0.271226694693448

>  <r_j_LUMO> (1)
-0.0114820521288546

>  <r_j_Polarizability> (1)
353.061058885145

>  <r_j_QM_Dipole_(debye)> (1)
1.64866073303812

>  <r_j_QM_Dipole_X_(debye)> (1)
1.25864167170428

>  <r_j_QM_Dipole_Y_(debye)> (1)
-0.061252429546076

>  <r_j_QM_Dipole_Z_(debye)> (1)
-1.06308583603863

>  <r_j_Lowest_Frequency_(cm-1)> (1)
11.9284989001907

>  <r_j_Highest_Frequency_(cm-1)> (1)
3108.12797211373

>  <r_j_2nd_Lowest_Frequency_(cm-1)> (1)
23.0813563949811

>  <i_j_Num_Negative_Frequencies> (1)
0

>  <r_j_Zero_Point_Energy_(kcal/mol)> (1)
503.351120198717

>  <r_j_Entropy_(cal/mol/K)_298.15K_1.00E+00atm> (1)
213.375157079767

>  <r_j_Enthalpy_(kcal/mol)_298.15K_1.00E+00atm> (1)
23.0939930361601

>  <r_j_Free_Energy_(kcal/mol)_298.15K_1.00E+00atm> (1)
-40.5238100471725

>  <r_j_Internal_Energy_(kcal/mol)_298.15K_1.00E+00atm> (1)
22.5015074473328

>  <r_j_Heat_Capacity_(cal/mol/K)_298.15K_1.00E+00atm> (1)
137.518090258287

>  <r_j_ln(Q)_298.15K_1.00E+00atm> (1)
68.3962796924439

>  <r_j_Total_Internal_Energy_(au)_298.15K_1.00E+00atm> (1)
-1250.89052033187

>  <r_j_Total_Enthalpy_(au)_298.15K_1.00E+00atm> (1)
-1250.88957614598

>  <r_j_Total_Free_Energy_(au)_298.15K_1.00E+00atm> (1)
-1250.99095756909

>  <r_lp_tautomer_probability> (1)
1

>  <r_epik_Ionization_Penalty> (1)
  0.0000

>  <r_epik_Ionization_Penalty_Charging> (1)
  0.0000

>  <r_epik_Ionization_Penalty_Neutral> (1)
  0.0000

>  <r_epik_State_Penalty> (1)
  0.0000

>  <r_epik_Charging_Adjusted_Penalty> (1)
0

>  <i_epik_Tot_Q> (1)
0

>  <i_epik_Tot_abs_Q> (1)
0

>  <s_lp_Force_Field> (1)
S-OPLS

>  <r_lp_Energy> (1)
13.371885

>  <b_lp_Chiralities_Consistent> (1)
1

>  <s_epik_Chemistry_Notes> (1)
This compound has an ester and may undergo hydrolysis at high or low pH.

$$$$
