41518_Methyl octacosanoate
                    3D
 Schrodinger Suite 2021-3.
 89 88  0  0  1  0            999 V2000
   -0.3896   11.3938   -8.2055 C   0  0  0  0  0  0
   -1.7142   10.7631   -7.7659 C   0  0  0  0  0  0
   -1.5929    9.9413   -6.4767 C   0  0  0  0  0  0
   -2.9184    9.3124   -6.0331 C   0  0  0  0  0  0
   -2.8124    8.4918   -4.7421 C   0  0  0  0  0  0
   -4.1525    7.8763   -4.3175 C   0  0  0  0  0  0
   -4.1190    7.1160   -2.9833 C   0  0  0  0  0  0
   -3.2383    5.8587   -2.9831 C   0  0  0  0  0  0
   -3.3564    5.0497   -1.6858 C   0  0  0  0  0  0
   -2.4921    3.7833   -1.6657 C   0  0  0  0  0  0
   -2.6785    2.9541   -0.3874 C   0  0  0  0  0  0
   -1.8973    1.6315   -0.3619 C   0  0  0  0  0  0
   -0.3720    1.7886   -0.2944 C   0  0  0  0  0  0
    0.3557    0.4399   -0.2092 C   0  0  0  0  0  0
    1.8884    0.5369   -0.1650 C   0  0  0  0  0  0
    2.4470    1.2132    1.0948 C   0  0  0  0  0  0
    3.9771    1.1566    1.1780 C   0  0  0  0  0  0
    4.5426    1.8453    2.4278 C   0  0  0  0  0  0
    6.0596    1.6807    2.6098 C   0  0  0  0  0  0
    6.9083    2.3378    1.5133 C   0  0  0  0  0  0
    8.4160    2.1717    1.7374 C   0  0  0  0  0  0
    9.2691    2.8190    0.6404 C   0  0  0  0  0  0
   10.7749    2.6027    0.8318 C   0  0  0  0  0  0
   11.6216    3.2639   -0.2643 C   0  0  0  0  0  0
   13.1241    2.9533   -0.1822 C   0  0  0  0  0  0
   13.8058    3.4841    1.0844 C   0  0  0  0  0  0
   15.3109    3.2153    1.0911 C   0  0  0  0  0  0
   15.9899    3.7085    2.3517 C   0  0  0  0  0  0
   15.4400    4.2464    3.2885 O   0  0  0  0  0  0
   17.3220    3.4685    2.3087 O   0  0  0  0  0  0
   18.0570    3.8979    3.4678 C   0  0  0  0  0  0
   -0.5057   11.9738   -9.1271 H   0  0  0  0  0  0
    0.3714   10.6262   -8.3879 H   0  0  0  0  0  0
    0.0012   12.0677   -7.4342 H   0  0  0  0  0  0
   -2.4665   11.5507   -7.6217 H   0  0  0  0  0  0
   -2.0999   10.1197   -8.5687 H   0  0  0  0  0  0
   -0.8423    9.1504   -6.6191 H   0  0  0  0  0  0
   -1.2061   10.5833   -5.6719 H   0  0  0  0  0  0
   -3.6677   10.1057   -5.8973 H   0  0  0  0  0  0
   -3.3025    8.6705   -6.8392 H   0  0  0  0  0  0
   -2.0626    7.7015   -4.8793 H   0  0  0  0  0  0
   -2.4348    9.1325   -3.9319 H   0  0  0  0  0  0
   -4.9009    8.6778   -4.2493 H   0  0  0  0  0  0
   -4.5057    7.2002   -5.1097 H   0  0  0  0  0  0
   -3.7823    7.7941   -2.1859 H   0  0  0  0  0  0
   -5.1450    6.8253   -2.7188 H   0  0  0  0  0  0
   -3.5184    5.2210   -3.8344 H   0  0  0  0  0  0
   -2.1877    6.1345   -3.1430 H   0  0  0  0  0  0
   -3.0860    5.6879   -0.8322 H   0  0  0  0  0  0
   -4.4088    4.7707   -1.5311 H   0  0  0  0  0  0
   -2.7398    3.1602   -2.5375 H   0  0  0  0  0  0
   -1.4374    4.0648   -1.7834 H   0  0  0  0  0  0
   -2.3944    3.5612    0.4844 H   0  0  0  0  0  0
   -3.7484    2.7355   -0.2668 H   0  0  0  0  0  0
   -2.2256    1.0424    0.5055 H   0  0  0  0  0  0
   -2.1629    1.0369   -1.2482 H   0  0  0  0  0  0
   -0.0083    2.3350   -1.1750 H   0  0  0  0  0  0
   -0.1186    2.4085    0.5759 H   0  0  0  0  0  0
    0.0043   -0.1041    0.6797 H   0  0  0  0  0  0
    0.0621   -0.1723   -1.0729 H   0  0  0  0  0  0
    2.3077   -0.4762   -0.2349 H   0  0  0  0  0  0
    2.2470    1.0743   -1.0549 H   0  0  0  0  0  0
    2.1241    2.2619    1.1328 H   0  0  0  0  0  0
    2.0171    0.7307    1.9848 H   0  0  0  0  0  0
    4.3017    0.1057    1.1672 H   0  0  0  0  0  0
    4.4010    1.6133    0.2740 H   0  0  0  0  0  0
    4.2925    2.9156    2.3969 H   0  0  0  0  0  0
    4.0341    1.4412    3.3139 H   0  0  0  0  0  0
    6.3512    2.1008    3.5821 H   0  0  0  0  0  0
    6.3014    0.6090    2.6586 H   0  0  0  0  0  0
    6.6475    1.9141    0.5347 H   0  0  0  0  0  0
    6.6616    3.4081    1.4565 H   0  0  0  0  0  0
    8.6914    2.5977    2.7128 H   0  0  0  0  0  0
    8.6555    1.1001    1.7976 H   0  0  0  0  0  0
    8.9673    2.4179   -0.3380 H   0  0  0  0  0  0
    9.0571    3.8972    0.6031 H   0  0  0  0  0  0
   11.0696    2.9871    1.8169 H   0  0  0  0  0  0
   10.9863    1.5234    0.8506 H   0  0  0  0  0  0
   11.2479    2.9384   -1.2447 H   0  0  0  0  0  0
   11.4732    4.3527   -0.2294 H   0  0  0  0  0  0
   13.2720    1.8654   -0.2463 H   0  0  0  0  0  0
   13.6243    3.3791   -1.0630 H   0  0  0  0  0  0
   13.6321    4.5630    1.1790 H   0  0  0  0  0  0
   13.3652    3.0325    1.9791 H   0  0  0  0  0  0
   15.5242    2.1427    0.9958 H   0  0  0  0  0  0
   15.8076    3.6881    0.2342 H   0  0  0  0  0  0
   19.0968    3.6345    3.2732 H   0  0  0  0  0  0
   17.6937    3.3903    4.3656 H   0  0  0  0  0  0
   17.9544    4.9768    3.6127 H   0  0  0  0  0  0
  1  2  1  0  0  0
  1 32  1  0  0  0
  1 33  1  0  0  0
  1 34  1  0  0  0
  2  3  1  0  0  0
  2 35  1  0  0  0
  2 36  1  0  0  0
  3  4  1  0  0  0
  3 37  1  0  0  0
  3 38  1  0  0  0
  4  5  1  0  0  0
  4 39  1  0  0  0
  4 40  1  0  0  0
  5  6  1  0  0  0
  5 41  1  0  0  0
  5 42  1  0  0  0
  6  7  1  0  0  0
  6 43  1  0  0  0
  6 44  1  0  0  0
  7  8  1  0  0  0
  7 45  1  0  0  0
  7 46  1  0  0  0
  8  9  1  0  0  0
  8 47  1  0  0  0
  8 48  1  0  0  0
  9 10  1  0  0  0
  9 49  1  0  0  0
  9 50  1  0  0  0
 10 11  1  0  0  0
 10 51  1  0  0  0
 10 52  1  0  0  0
 11 12  1  0  0  0
 11 53  1  0  0  0
 11 54  1  0  0  0
 12 13  1  0  0  0
 12 55  1  0  0  0
 12 56  1  0  0  0
 13 14  1  0  0  0
 13 57  1  0  0  0
 13 58  1  0  0  0
 14 15  1  0  0  0
 14 59  1  0  0  0
 14 60  1  0  0  0
 15 16  1  0  0  0
 15 61  1  0  0  0
 15 62  1  0  0  0
 16 17  1  0  0  0
 16 63  1  0  0  0
 16 64  1  0  0  0
 17 18  1  0  0  0
 17 65  1  0  0  0
 17 66  1  0  0  0
 18 19  1  0  0  0
 18 67  1  0  0  0
 18 68  1  0  0  0
 19 20  1  0  0  0
 19 69  1  0  0  0
 19 70  1  0  0  0
 20 21  1  0  0  0
 20 71  1  0  0  0
 20 72  1  0  0  0
 21 22  1  0  0  0
 21 73  1  0  0  0
 21 74  1  0  0  0
 22 23  1  0  0  0
 22 75  1  0  0  0
 22 76  1  0  0  0
 23 24  1  0  0  0
 23 77  1  0  0  0
 23 78  1  0  0  0
 24 25  1  0  0  0
 24 79  1  0  0  0
 24 80  1  0  0  0
 25 26  1  0  0  0
 25 81  1  0  0  0
 25 82  1  0  0  0
 26 27  1  0  0  0
 26 83  1  0  0  0
 26 84  1  0  0  0
 27 28  1  0  0  0
 27 85  1  0  0  0
 27 86  1  0  0  0
 28 29  2  0  0  0
 28 30  1  0  0  0
 30 31  1  0  0  0
 31 87  1  0  0  0
 31 88  1  0  0  0
 31 89  1  0  0  0
M  END
>  <i_m_Spin_multiplicity> (1)
1

>  <s_j_Task> (1)
Single Point

>  <s_j_QM_Method> (1)
DFT(b3lyp-d3)

>  <s_j_QM_Basis> (1)
cc-pvtz(-f)

>  <i_j_Number_of_canonical_orbitals> (1)
1226

>  <i_j_Geometry_convergence_category> (1)
3

>  <r_j_Gas_Phase_Energy> (1)
-1291.05558684113

>  <r_j_Final_Energy> (1)
-1291.05558684113

>  <r_j_HOMO> (1)
-0.219903995857254

>  <r_j_LUMO> (1)
0.0127504765795492

>  <r_j_Polarizability> (1)
365.036959231554

>  <r_j_QM_Dipole_(debye)> (1)
1.50238040978056

>  <r_j_QM_Dipole_X_(debye)> (1)
0.959232592685496

>  <r_j_QM_Dipole_Y_(debye)> (1)
-0.670894417388774

>  <r_j_QM_Dipole_Z_(debye)> (1)
-0.941764519154781

>  <r_j_Lowest_Frequency_(cm-1)> (1)
12.3450641207431

>  <r_j_Highest_Frequency_(cm-1)> (1)
3106.93344103823

>  <r_j_2nd_Lowest_Frequency_(cm-1)> (1)
20.8752777464866

>  <i_j_Num_Negative_Frequencies> (1)
0

>  <r_j_Zero_Point_Energy_(kcal/mol)> (1)
521.258276461134

>  <r_j_Entropy_(cal/mol/K)_298.15K_1.00E+00atm> (1)
218.752241610561

>  <r_j_Enthalpy_(kcal/mol)_298.15K_1.00E+00atm> (1)
23.8510663092604

>  <r_j_Free_Energy_(kcal/mol)_298.15K_1.00E+00atm> (1)
-41.3699145269284

>  <r_j_Internal_Energy_(kcal/mol)_298.15K_1.00E+00atm> (1)
23.2585807204331

>  <r_j_Heat_Capacity_(cal/mol/K)_298.15K_1.00E+00atm> (1)
142.230242729825

>  <r_j_ln(Q)_298.15K_1.00E+00atm> (1)
69.8243388650401

>  <r_j_Total_Internal_Energy_(au)_298.15K_1.00E+00atm> (1)
-1290.18784398908

>  <r_j_Total_Enthalpy_(au)_298.15K_1.00E+00atm> (1)
-1290.18689980319

>  <r_j_Total_Free_Energy_(au)_298.15K_1.00E+00atm> (1)
-1290.29083605269

>  <r_lp_tautomer_probability> (1)
1

>  <r_epik_Ionization_Penalty> (1)
  0.0000

>  <r_epik_Ionization_Penalty_Charging> (1)
  0.0000

>  <r_epik_Ionization_Penalty_Neutral> (1)
  0.0000

>  <r_epik_State_Penalty> (1)
  0.0000

>  <r_epik_Charging_Adjusted_Penalty> (1)
0

>  <i_epik_Tot_Q> (1)
0

>  <i_epik_Tot_abs_Q> (1)
0

>  <s_lp_Force_Field> (1)
S-OPLS

>  <r_lp_Energy> (1)
15.5956

>  <b_lp_Chiralities_Consistent> (1)
1

>  <s_epik_Chemistry_Notes> (1)
This compound has an ester and may undergo hydrolysis at high or low pH.

$$$$
