42138_1,2,3,7,8-Pentachlorodibenzofuran
                    3D
 Schrodinger Suite 2021-3.
 21 23  0  0  1  0            999 V2000
   -1.6087    3.1816   -0.0374 C   0  0  0  0  0  0
   -0.4270    3.9256   -0.0487 C   0  0  0  0  0  0
    0.8054    3.2480   -0.0835 C   0  0  0  0  0  0
    0.9161    1.8695   -0.1068 C   0  0  0  0  0  0
   -0.2735    1.1383   -0.0950 C   0  0  0  0  0  0
   -1.5260    1.7906   -0.0609 C   0  0  0  0  0  0
   -3.0185    0.8773   -0.0469 Cl  0  0  0  0  0  0
   -0.1596   -0.6041   -0.1239 Cl  0  0  0  0  0  0
    1.8689    4.1202   -0.0913 O   0  0  0  0  0  0
    1.3224    5.3784   -0.0615 C   0  0  0  0  0  0
    2.0529    6.5518   -0.0590 C   0  0  0  0  0  0
    1.3287    7.7429   -0.0271 C   0  0  0  0  0  0
   -0.0860    7.7565    0.0021 C   0  0  0  0  0  0
   -0.7896    6.5409   -0.0009 C   0  0  0  0  0  0
   -0.0836    5.3343   -0.0338 C   0  0  0  0  0  0
   -2.5325    6.5000    0.0364 Cl  0  0  0  0  0  0
   -0.9495    9.2675    0.0414 Cl  0  0  0  0  0  0
    2.2356    9.2355   -0.0243 Cl  0  0  0  0  0  0
   -2.5763    3.6632   -0.0114 H   0  0  0  0  0  0
    1.8780    1.3740   -0.1331 H   0  0  0  0  0  0
    3.1348    6.5523   -0.0807 H   0  0  0  0  0  0
  1  6  1  0  0  0
  1  2  2  0  0  0
  1 19  1  0  0  0
  2 15  1  0  0  0
  2  3  1  0  0  0
  3  4  2  0  0  0
  3  9  1  0  0  0
  4  5  1  0  0  0
  4 20  1  0  0  0
  5  6  2  0  0  0
  5  8  1  0  0  0
  6  7  1  0  0  0
  9 10  1  0  0  0
 10 15  1  0  0  0
 10 11  2  0  0  0
 11 12  1  0  0  0
 11 21  1  0  0  0
 12 13  2  0  0  0
 12 18  1  0  0  0
 13 14  1  0  0  0
 13 17  1  0  0  0
 14 15  2  0  0  0
 14 16  1  0  0  0
M  END
>  <i_m_Spin_multiplicity> (1)
1

>  <s_j_Task> (1)
Single Point

>  <s_j_QM_Method> (1)
DFT(b3lyp-d3)

>  <s_j_QM_Basis> (1)
cc-pvtz(-f)

>  <i_j_Number_of_canonical_orbitals> (1)
450

>  <i_j_Geometry_convergence_category> (1)
1

>  <r_j_Gas_Phase_Energy> (1)
-2835.6419389777

>  <r_j_Final_Energy> (1)
-2835.6419389777

>  <r_j_HOMO> (1)
-0.221521134315191

>  <r_j_LUMO> (1)
-0.0553309790864654

>  <r_j_Polarizability> (1)
216.343829514285

>  <r_j_QM_Dipole_(debye)> (1)
1.53284777227037

>  <r_j_QM_Dipole_X_(debye)> (1)
1.53179926312475

>  <r_j_QM_Dipole_Y_(debye)> (1)
-0.0476965816295506

>  <r_j_QM_Dipole_Z_(debye)> (1)
-0.0306324426967358

>  <r_j_Lowest_Frequency_(cm-1)> (1)
49.8685200838898

>  <r_j_Highest_Frequency_(cm-1)> (1)
3197.23868307791

>  <r_j_2nd_Lowest_Frequency_(cm-1)> (1)
61.0918692991871

>  <i_j_Num_Negative_Frequencies> (1)
0

>  <r_j_Zero_Point_Energy_(kcal/mol)> (1)
72.4227426957172

>  <r_j_Entropy_(cal/mol/K)_298.15K_1.00E+00atm> (1)
121.711337196511

>  <r_j_Enthalpy_(kcal/mol)_298.15K_1.00E+00atm> (1)
9.73631213206773

>  <r_j_Free_Energy_(kcal/mol)_298.15K_1.00E+00atm> (1)
-26.551923053072

>  <r_j_Internal_Energy_(kcal/mol)_298.15K_1.00E+00atm> (1)
9.14382654324046

>  <r_j_Heat_Capacity_(cal/mol/K)_298.15K_1.00E+00atm> (1)
55.2159828848064

>  <r_j_ln(Q)_298.15K_1.00E+00atm> (1)
44.8144622481486

>  <r_j_Total_Internal_Energy_(au)_298.15K_1.00E+00atm> (1)
-2835.51195437486

>  <r_j_Total_Enthalpy_(au)_298.15K_1.00E+00atm> (1)
-2835.51101018897

>  <r_j_Total_Free_Energy_(au)_298.15K_1.00E+00atm> (1)
-2835.5688391731

>  <r_lp_tautomer_probability> (1)
1

>  <r_epik_Ionization_Penalty> (1)
  0.0000

>  <r_epik_Ionization_Penalty_Charging> (1)
  0.0000

>  <r_epik_Ionization_Penalty_Neutral> (1)
  0.0000

>  <r_epik_State_Penalty> (1)
  0.0000

>  <r_epik_Charging_Adjusted_Penalty> (1)
0

>  <i_epik_Tot_Q> (1)
0

>  <i_epik_Tot_abs_Q> (1)
0

>  <s_lp_Force_Field> (1)
S-OPLS

>  <r_lp_Energy> (1)
21.4148

>  <b_lp_Chiralities_Consistent> (1)
1

$$$$
