42540_1,2,3,6,7,8-Hexachlorodibenzo-p-dioxin
                    3D
 Schrodinger Suite 2021-3.
 22 24  0  0  1  0            999 V2000
   -0.0895   -2.7549    0.0292 C   0  0  0  0  0  0
    0.0847   -2.0587    1.2123 C   0  0  0  0  0  0
    0.0668   -0.6618    1.2285 C   0  0  0  0  0  0
   -0.1291    0.0414    0.0381 C   0  0  0  0  0  0
   -0.3081   -0.6545   -1.1757 C   0  0  0  0  0  0
   -0.2855   -2.0564   -1.1624 C   0  0  0  0  0  0
   -0.4999   -2.9848   -2.6249 Cl  0  0  0  0  0  0
   -0.5519    0.2209   -2.6571 Cl  0  0  0  0  0  0
   -0.1443    1.7783    0.1033 Cl  0  0  0  0  0  0
    0.2378    0.0468    2.3919 O   0  0  0  0  0  0
    0.4278   -0.6907    3.5405 C   0  0  0  0  0  0
    0.6021    0.0055    4.7236 C   0  0  0  0  0  0
    0.7984   -0.6930    5.9151 C   0  0  0  0  0  0
    0.8211   -2.0949    5.9284 C   0  0  0  0  0  0
    0.6419   -2.7908    4.7147 C   0  0  0  0  0  0
    0.4458   -2.0876    3.5243 C   0  0  0  0  0  0
    0.2746   -2.7963    2.3610 O   0  0  0  0  0  0
    0.6571   -4.5277    4.6495 Cl  0  0  0  0  0  0
    1.0655   -2.9702    7.4098 Cl  0  0  0  0  0  0
    1.0130    0.2353    7.3776 Cl  0  0  0  0  0  0
   -0.0715   -3.8373    0.0429 H   0  0  0  0  0  0
    0.5841    1.0879    4.7099 H   0  0  0  0  0  0
  1  6  1  0  0  0
  1  2  2  0  0  0
  1 21  1  0  0  0
  2 17  1  0  0  0
  2  3  1  0  0  0
  3  4  2  0  0  0
  3 10  1  0  0  0
  4  5  1  0  0  0
  4  9  1  0  0  0
  5  6  2  0  0  0
  5  8  1  0  0  0
  6  7  1  0  0  0
 10 11  1  0  0  0
 11 16  1  0  0  0
 11 12  2  0  0  0
 12 13  1  0  0  0
 12 22  1  0  0  0
 13 14  2  0  0  0
 13 20  1  0  0  0
 14 15  1  0  0  0
 14 19  1  0  0  0
 15 16  2  0  0  0
 15 18  1  0  0  0
 16 17  1  0  0  0
M  END
>  <i_m_Spin_multiplicity> (1)
1

>  <s_j_Task> (1)
Single Point

>  <s_j_QM_Method> (1)
DFT(b3lyp-d3)

>  <s_j_QM_Basis> (1)
cc-pvtz(-f)

>  <i_j_Number_of_canonical_orbitals> (1)
491

>  <i_j_Geometry_convergence_category> (1)
0

>  <r_j_Gas_Phase_Energy> (1)
-3370.48534372581

>  <r_j_Final_Energy> (1)
-3370.48534372581

>  <r_j_HOMO> (1)
-0.254433653286591

>  <r_j_LUMO> (1)
-0.0891100251401992

>  <r_j_Polarizability> (1)
229.06203703609

>  <r_j_QM_Dipole_(debye)> (1)
0.0012524068837613

>  <r_j_QM_Dipole_X_(debye)> (1)
-0.000286014880756205

>  <r_j_QM_Dipole_Y_(debye)> (1)
0.00055758553104121

>  <r_j_QM_Dipole_Z_(debye)> (1)
-0.00108435089618269

>  <r_j_Lowest_Frequency_(cm-1)> (1)
32.6105092998211

>  <r_j_Highest_Frequency_(cm-1)> (1)
3180.02649993529

>  <r_j_2nd_Lowest_Frequency_(cm-1)> (1)
51.4060890478855

>  <i_j_Num_Negative_Frequencies> (1)
0

>  <r_j_Zero_Point_Energy_(kcal/mol)> (1)
68.6566485678272

>  <r_j_Entropy_(cal/mol/K)_298.15K_1.00E+00atm> (1)
132.542156662607

>  <r_j_Enthalpy_(kcal/mol)_298.15K_1.00E+00atm> (1)
11.2012759500552

>  <r_j_Free_Energy_(kcal/mol)_298.15K_1.00E+00atm> (1)
-28.316168058901

>  <r_j_Internal_Energy_(kcal/mol)_298.15K_1.00E+00atm> (1)
10.6087903612279

>  <r_j_Heat_Capacity_(cal/mol/K)_298.15K_1.00E+00atm> (1)
62.7932629212943

>  <r_j_ln(Q)_298.15K_1.00E+00atm> (1)
47.7921633755651

>  <r_j_Total_Internal_Energy_(au)_298.15K_1.00E+00atm> (1)
-3370.35902620756

>  <r_j_Total_Enthalpy_(au)_298.15K_1.00E+00atm> (1)
-3370.35808202166

>  <r_j_Total_Free_Energy_(au)_298.15K_1.00E+00atm> (1)
-3370.42105707766

>  <r_lp_tautomer_probability> (1)
1

>  <r_epik_Ionization_Penalty> (1)
  0.0000

>  <r_epik_Ionization_Penalty_Charging> (1)
  0.0000

>  <r_epik_Ionization_Penalty_Neutral> (1)
  0.0000

>  <r_epik_State_Penalty> (1)
  0.0000

>  <r_epik_Charging_Adjusted_Penalty> (1)
0

>  <i_epik_Tot_Q> (1)
0

>  <i_epik_Tot_abs_Q> (1)
0

>  <s_lp_Force_Field> (1)
S-OPLS

>  <r_lp_Energy> (1)
30.0856

>  <b_lp_Chiralities_Consistent> (1)
1

$$$$
