4284_N,n-diethyl-3-methylbenzamide
                    3D
 Schrodinger Suite 2021-3.
 31 31  0  0  1  0            999 V2000
   -0.4621    1.8891    0.4261 C   0  0  0  0  0  0
   -0.0855    0.4350    0.1318 C   0  0  0  0  0  0
    1.3604    0.2062    0.0401 N   0  0  0  0  0  0
    2.0878    0.0982    1.3125 C   0  0  0  0  0  0
    2.0301   -1.3071    1.9180 C   0  0  0  0  0  0
    1.9999   -0.2943   -1.0722 C   0  0  0  0  0  0
    3.1103   -0.8204   -0.9962 O   0  0  0  0  0  0
    1.3266   -0.1639   -2.4124 C   0  0  0  0  0  0
    1.3447   -1.2746   -3.2610 C   0  0  0  0  0  0
    0.7813   -1.1840   -4.5321 C   0  0  0  0  0  0
    0.2275    0.0179   -4.9708 C   0  0  0  0  0  0
    0.2303    1.1528   -4.1487 C   0  0  0  0  0  0
    0.7791    1.0419   -2.8683 C   0  0  0  0  0  0
   -0.3432    2.4594   -4.6455 C   0  0  0  0  0  0
   -1.5483    1.9829    0.5275 H   0  0  0  0  0  0
   -0.1358    2.5531   -0.3788 H   0  0  0  0  0  0
   -0.0082    2.2426    1.3568 H   0  0  0  0  0  0
   -0.4849   -0.2128    0.9239 H   0  0  0  0  0  0
   -0.5522    0.1088   -0.7984 H   0  0  0  0  0  0
    3.1267    0.3757    1.1238 H   0  0  0  0  0  0
    1.6634    0.8356    2.0012 H   0  0  0  0  0  0
    2.5642   -1.3329    2.8735 H   0  0  0  0  0  0
    2.5008   -2.0173    1.2351 H   0  0  0  0  0  0
    0.9977   -1.6236    2.1021 H   0  0  0  0  0  0
    1.8064   -2.1937   -2.9155 H   0  0  0  0  0  0
    0.7801   -2.0509   -5.1867 H   0  0  0  0  0  0
   -0.2032    0.0821   -5.9674 H   0  0  0  0  0  0
    0.8039    1.9139   -2.2222 H   0  0  0  0  0  0
   -0.2812    3.2421   -3.8843 H   0  0  0  0  0  0
   -1.3964    2.3478   -4.9278 H   0  0  0  0  0  0
    0.1919    2.8134   -5.5340 H   0  0  0  0  0  0
  1  2  1  0  0  0
  1 15  1  0  0  0
  1 16  1  0  0  0
  1 17  1  0  0  0
  2  3  1  0  0  0
  2 18  1  0  0  0
  2 19  1  0  0  0
  3  4  1  0  0  0
  3  6  1  0  0  0
  4  5  1  0  0  0
  4 20  1  0  0  0
  4 21  1  0  0  0
  5 22  1  0  0  0
  5 23  1  0  0  0
  5 24  1  0  0  0
  6  7  2  0  0  0
  6  8  1  0  0  0
  8 13  1  0  0  0
  8  9  2  0  0  0
  9 10  1  0  0  0
  9 25  1  0  0  0
 10 11  2  0  0  0
 10 26  1  0  0  0
 11 12  1  0  0  0
 11 27  1  0  0  0
 12 13  2  0  0  0
 12 14  1  0  0  0
 13 28  1  0  0  0
 14 29  1  0  0  0
 14 30  1  0  0  0
 14 31  1  0  0  0
M  END
>  <i_m_Spin_multiplicity> (1)
1

>  <s_j_Task> (1)
Single Point

>  <s_j_QM_Method> (1)
DFT(b3lyp-d3)

>  <s_j_QM_Basis> (1)
cc-pvtz(-f)

>  <i_j_Number_of_canonical_orbitals> (1)
470

>  <i_j_Geometry_convergence_category> (1)
0

>  <r_j_Gas_Phase_Energy> (1)
-597.735705259081

>  <r_j_Final_Energy> (1)
-597.735705259081

>  <r_j_HOMO> (1)
-0.226877696748307

>  <r_j_LUMO> (1)
-0.0203095592363589

>  <r_j_Polarizability> (1)
150.986429701087

>  <r_j_QM_Dipole_(debye)> (1)
3.75364949515765

>  <r_j_QM_Dipole_X_(debye)> (1)
-3.4052540724939

>  <r_j_QM_Dipole_Y_(debye)> (1)
1.54277990008581

>  <r_j_QM_Dipole_Z_(debye)> (1)
0.337578752518823

>  <r_j_Lowest_Frequency_(cm-1)> (1)
61.01398920599

>  <r_j_Highest_Frequency_(cm-1)> (1)
3154.56814468115

>  <r_j_2nd_Lowest_Frequency_(cm-1)> (1)
73.7724844090737

>  <i_j_Num_Negative_Frequencies> (1)
0

>  <r_j_Zero_Point_Energy_(kcal/mol)> (1)
168.022574728858

>  <r_j_Entropy_(cal/mol/K)_298.15K_1.00E+00atm> (1)
113.683102321939

>  <r_j_Enthalpy_(kcal/mol)_298.15K_1.00E+00atm> (1)
9.23050735113059

>  <r_j_Free_Energy_(kcal/mol)_298.15K_1.00E+00atm> (1)
-24.6641096061557

>  <r_j_Internal_Energy_(kcal/mol)_298.15K_1.00E+00atm> (1)
8.63802176230331

>  <r_j_Heat_Capacity_(cal/mol/K)_298.15K_1.00E+00atm> (1)
53.725314960043

>  <r_j_ln(Q)_298.15K_1.00E+00atm> (1)
41.6282017170648

>  <r_j_Total_Internal_Energy_(au)_298.15K_1.00E+00atm> (1)
-597.454178676716

>  <r_j_Total_Enthalpy_(au)_298.15K_1.00E+00atm> (1)
-597.453234490823

>  <r_j_Total_Free_Energy_(au)_298.15K_1.00E+00atm> (1)
-597.507249001485

>  <r_lp_tautomer_probability> (1)
1

>  <r_epik_Ionization_Penalty> (1)
  0.0000

>  <r_epik_Ionization_Penalty_Charging> (1)
  0.0000

>  <r_epik_Ionization_Penalty_Neutral> (1)
  0.0000

>  <r_epik_State_Penalty> (1)
  0.0000

>  <r_epik_Charging_Adjusted_Penalty> (1)
0

>  <i_epik_Tot_Q> (1)
0

>  <i_epik_Tot_abs_Q> (1)
0

>  <s_lp_Force_Field> (1)
S-OPLS

>  <r_lp_Energy> (1)
26.8198

>  <b_lp_Chiralities_Consistent> (1)
1

$$$$
