43254_Dibenzo(b,k)fluoranthene
                    3D
 Schrodinger Suite 2021-3.
 38 43  0  0  1  0            999 V2000
   -3.3275    4.8745   -1.2209 C   0  0  0  0  0  0
   -4.1908    4.1559   -0.3618 C   0  0  0  0  0  0
   -3.7971    2.9434    0.1592 C   0  0  0  0  0  0
   -2.5280    2.3910   -0.1501 C   0  0  0  0  0  0
   -2.1073    1.1396    0.3805 C   0  0  0  0  0  0
   -0.8713    0.6408    0.0561 C   0  0  0  0  0  0
    0.0114    1.3742   -0.8214 C   0  0  0  0  0  0
   -0.3723    2.5827   -1.3451 C   0  0  0  0  0  0
   -1.6501    3.1212   -1.0233 C   0  0  0  0  0  0
   -2.0879    4.3667   -1.5419 C   0  0  0  0  0  0
    1.2479    0.5907   -0.9772 C   0  0  0  0  0  0
    2.4296    0.7697   -1.6763 C   0  0  0  0  0  0
    3.4222   -0.2312   -1.5805 C   0  0  0  0  0  0
    3.2514   -1.3786   -0.8140 C   0  0  0  0  0  0
    2.0517   -1.5861   -0.0889 C   0  0  0  0  0  0
    1.0883   -0.5805   -0.2024 C   0  0  0  0  0  0
   -0.1874   -0.6001    0.4491 C   0  0  0  0  0  0
   -0.5088   -1.6635    1.2411 C   0  0  0  0  0  0
    0.4344   -2.7404    1.4074 C   0  0  0  0  0  0
    0.1064   -3.8451    2.2282 C   0  0  0  0  0  0
    0.9875   -4.8931    2.4093 C   0  0  0  0  0  0
    2.2397   -4.8727    1.7696 C   0  0  0  0  0  0
    2.5898   -3.8066    0.9605 C   0  0  0  0  0  0
    1.7133   -2.7212    0.7549 C   0  0  0  0  0  0
   -3.6459    5.8298   -1.6276 H   0  0  0  0  0  0
   -5.1663    4.5638   -0.1139 H   0  0  0  0  0  0
   -4.4587    2.3891    0.8197 H   0  0  0  0  0  0
   -2.7762    0.5929    1.0402 H   0  0  0  0  0  0
    0.2854    3.1412   -2.0059 H   0  0  0  0  0  0
   -1.4232    4.9182   -2.2022 H   0  0  0  0  0  0
    2.6020    1.6517   -2.2861 H   0  0  0  0  0  0
    4.3525   -0.0993   -2.1257 H   0  0  0  0  0  0
    4.0504   -2.1118   -0.7798 H   0  0  0  0  0  0
   -1.4641   -1.7249    1.7563 H   0  0  0  0  0  0
   -0.8627   -3.8562    2.7206 H   0  0  0  0  0  0
    0.7150   -5.7310    3.0439 H   0  0  0  0  0  0
    2.9341   -5.6956    1.9109 H   0  0  0  0  0  0
    3.5599   -3.8065    0.4742 H   0  0  0  0  0  0
  1 10  1  0  0  0
  1  2  2  0  0  0
  1 25  1  0  0  0
  2  3  1  0  0  0
  2 26  1  0  0  0
  3  4  2  0  0  0
  3 27  1  0  0  0
  4  9  1  0  0  0
  4  5  1  0  0  0
  5  6  2  0  0  0
  5 28  1  0  0  0
  6 17  1  0  0  0
  6  7  1  0  0  0
  7  8  2  0  0  0
  7 11  1  0  0  0
  8  9  1  0  0  0
  8 29  1  0  0  0
  9 10  2  0  0  0
 10 30  1  0  0  0
 11 16  1  0  0  0
 11 12  2  0  0  0
 12 13  1  0  0  0
 12 31  1  0  0  0
 13 14  2  0  0  0
 13 32  1  0  0  0
 14 15  1  0  0  0
 14 33  1  0  0  0
 15 24  1  0  0  0
 15 16  2  0  0  0
 16 17  1  0  0  0
 17 18  2  0  0  0
 18 19  1  0  0  0
 18 34  1  0  0  0
 19 24  1  0  0  0
 19 20  2  0  0  0
 20 21  1  0  0  0
 20 35  1  0  0  0
 21 22  2  0  0  0
 21 36  1  0  0  0
 22 23  1  0  0  0
 22 37  1  0  0  0
 23 24  2  0  0  0
 23 38  1  0  0  0
M  END
>  <i_m_Spin_multiplicity> (1)
1

>  <s_j_Task> (1)
Single Point

>  <s_j_QM_Method> (1)
DFT(b3lyp-d3)

>  <s_j_QM_Basis> (1)
cc-pvtz(-f)

>  <i_j_Number_of_canonical_orbitals> (1)
652

>  <i_j_Geometry_convergence_category> (1)
3

>  <r_j_Gas_Phase_Energy> (1)
-923.337168855222

>  <r_j_Final_Energy> (1)
-923.337168855222

>  <r_j_HOMO> (1)
-0.203037251191574

>  <r_j_LUMO> (1)
-0.0759440709004928

>  <r_j_Polarizability> (1)
320.138547313951

>  <r_j_QM_Dipole_(debye)> (1)
0.337047797139446

>  <r_j_QM_Dipole_X_(debye)> (1)
0.134362759676761

>  <r_j_QM_Dipole_Y_(debye)> (1)
-0.29022972986849

>  <r_j_QM_Dipole_Z_(debye)> (1)
0.10636996883078

>  <r_j_Lowest_Frequency_(cm-1)> (1)
65.6023857861182

>  <r_j_Highest_Frequency_(cm-1)> (1)
3154.92627510477

>  <r_j_2nd_Lowest_Frequency_(cm-1)> (1)
94.2213153913517

>  <i_j_Num_Negative_Frequencies> (1)
0

>  <r_j_Zero_Point_Energy_(kcal/mol)> (1)
187.526236219096

>  <r_j_Entropy_(cal/mol/K)_298.15K_1.00E+00atm> (1)
121.27723254912

>  <r_j_Enthalpy_(kcal/mol)_298.15K_1.00E+00atm> (1)
10.1675059775501

>  <r_j_Free_Energy_(kcal/mol)_298.15K_1.00E+00atm> (1)
-25.9913009069701

>  <r_j_Internal_Energy_(kcal/mol)_298.15K_1.00E+00atm> (1)
9.57502038872284

>  <r_j_Heat_Capacity_(cal/mol/K)_298.15K_1.00E+00atm> (1)
67.4866844655188

>  <r_j_ln(Q)_298.15K_1.00E+00atm> (1)
43.8682415186089

>  <r_j_Total_Internal_Energy_(au)_298.15K_1.00E+00atm> (1)
-923.023068007297

>  <r_j_Total_Enthalpy_(au)_298.15K_1.00E+00atm> (1)
-923.022123821405

>  <r_j_Total_Free_Energy_(au)_298.15K_1.00E+00atm> (1)
-923.079746548413

>  <r_lp_tautomer_probability> (1)
1

>  <r_epik_Ionization_Penalty> (1)
  0.0000

>  <r_epik_Ionization_Penalty_Charging> (1)
  0.0000

>  <r_epik_Ionization_Penalty_Neutral> (1)
  0.0000

>  <r_epik_State_Penalty> (1)
  0.0000

>  <r_epik_Charging_Adjusted_Penalty> (1)
0

>  <i_epik_Tot_Q> (1)
0

>  <i_epik_Tot_abs_Q> (1)
0

>  <s_lp_Force_Field> (1)
S-OPLS

>  <r_lp_Energy> (1)
49.2815

>  <b_lp_Chiralities_Consistent> (1)
1

$$$$
