43495_2,3,4,6,7,8-Hexachlorodibenzofuran
                    3D
 Schrodinger Suite 2021-3.
 21 23  0  0  1  0            999 V2000
   -1.6010    3.1997   -0.0369 C   0  0  0  0  0  0
   -0.4123    3.9275   -0.0495 C   0  0  0  0  0  0
   -0.0685    5.3368   -0.0349 C   0  0  0  0  0  0
   -0.7885    6.5298   -0.0023 C   0  0  0  0  0  0
   -0.0838    7.7302    0.0018 C   0  0  0  0  0  0
    1.3322    7.7616   -0.0261 C   0  0  0  0  0  0
    2.0602    6.5579   -0.0589 C   0  0  0  0  0  0
    1.3345    5.3724   -0.0624 C   0  0  0  0  0  0
    1.8808    4.1153   -0.0925 O   0  0  0  0  0  0
    0.8169    3.2506   -0.0845 C   0  0  0  0  0  0
    0.9152    1.8644   -0.1077 C   0  0  0  0  0  0
   -0.2854    1.1310   -0.0948 C   0  0  0  0  0  0
   -1.5281    1.8099   -0.0596 C   0  0  0  0  0  0
   -3.0310    0.9151   -0.0433 Cl  0  0  0  0  0  0
   -0.2291   -0.6054   -0.1224 Cl  0  0  0  0  0  0
    2.4822    1.1206   -0.1503 Cl  0  0  0  0  0  0
    3.7938    6.4966   -0.0947 Cl  0  0  0  0  0  0
    2.1818    9.2772   -0.0202 Cl  0  0  0  0  0  0
   -1.0064    9.2157    0.0427 Cl  0  0  0  0  0  0
   -2.5673    3.6881   -0.0101 H   0  0  0  0  0  0
   -1.8713    6.5407    0.0195 H   0  0  0  0  0  0
  1 13  1  0  0  0
  1  2  2  0  0  0
  1 20  1  0  0  0
  2 10  1  0  0  0
  2  3  1  0  0  0
  3  8  1  0  0  0
  3  4  2  0  0  0
  4  5  1  0  0  0
  4 21  1  0  0  0
  5  6  2  0  0  0
  5 19  1  0  0  0
  6  7  1  0  0  0
  6 18  1  0  0  0
  7  8  2  0  0  0
  7 17  1  0  0  0
  8  9  1  0  0  0
  9 10  1  0  0  0
 10 11  2  0  0  0
 11 12  1  0  0  0
 11 16  1  0  0  0
 12 13  2  0  0  0
 12 15  1  0  0  0
 13 14  1  0  0  0
M  END
>  <i_m_Spin_multiplicity> (1)
1

>  <s_j_Task> (1)
Single Point

>  <s_j_QM_Method> (1)
DFT(b3lyp-d3)

>  <s_j_QM_Basis> (1)
cc-pvtz(-f)

>  <i_j_Number_of_canonical_orbitals> (1)
467

>  <i_j_Geometry_convergence_category> (1)
0

>  <r_j_Gas_Phase_Energy> (1)
-3295.25999211676

>  <r_j_Final_Energy> (1)
-3295.25999211676

>  <r_j_HOMO> (1)
-0.225980664025024

>  <r_j_LUMO> (1)
-0.0614471406226447

>  <r_j_Polarizability> (1)
230.917641199835

>  <r_j_QM_Dipole_(debye)> (1)
1.44243622964362

>  <r_j_QM_Dipole_X_(debye)> (1)
-1.4009166170682

>  <r_j_QM_Dipole_Y_(debye)> (1)
0.341971634182684

>  <r_j_QM_Dipole_Z_(debye)> (1)
0.033321314876856

>  <r_j_Lowest_Frequency_(cm-1)> (1)
53.5497405285486

>  <r_j_Highest_Frequency_(cm-1)> (1)
3172.15017375707

>  <r_j_2nd_Lowest_Frequency_(cm-1)> (1)
55.9512570750881

>  <i_j_Num_Negative_Frequencies> (1)
0

>  <r_j_Zero_Point_Energy_(kcal/mol)> (1)
66.3250546655924

>  <r_j_Entropy_(cal/mol/K)_298.15K_1.00E+00atm> (1)
128.374821500848

>  <r_j_Enthalpy_(kcal/mol)_298.15K_1.00E+00atm> (1)
10.5759821742431

>  <r_j_Free_Energy_(kcal/mol)_298.15K_1.00E+00atm> (1)
-27.6989708562348

>  <r_j_Internal_Energy_(kcal/mol)_298.15K_1.00E+00atm> (1)
9.98349658541579

>  <r_j_Heat_Capacity_(cal/mol/K)_298.15K_1.00E+00atm> (1)
59.0128761905299

>  <r_j_ln(Q)_298.15K_1.00E+00atm> (1)
46.7504549959777

>  <r_j_Total_Internal_Energy_(au)_298.15K_1.00E+00atm> (1)
-3295.13838669899

>  <r_j_Total_Enthalpy_(au)_298.15K_1.00E+00atm> (1)
-3295.1374425131

>  <r_j_Total_Free_Energy_(au)_298.15K_1.00E+00atm> (1)
-3295.19843753367

>  <r_lp_tautomer_probability> (1)
1

>  <r_epik_Ionization_Penalty> (1)
  0.0000

>  <r_epik_Ionization_Penalty_Charging> (1)
  0.0000

>  <r_epik_Ionization_Penalty_Neutral> (1)
  0.0000

>  <r_epik_State_Penalty> (1)
  0.0000

>  <r_epik_Charging_Adjusted_Penalty> (1)
0

>  <i_epik_Tot_Q> (1)
0

>  <i_epik_Tot_abs_Q> (1)
0

>  <s_lp_Force_Field> (1)
S-OPLS

>  <r_lp_Energy> (1)
23.0654

>  <b_lp_Chiralities_Consistent> (1)
1

$$$$
