442649_Myosmine
                    3D
 Schrodinger Suite 2021-3.
 21 22  0  0  1  0            999 V2000
   -2.2660    0.5342   -0.1107 C   0  0  0  0  0  0
   -0.8420    1.0191   -0.2484 C   0  0  0  0  0  0
    0.0045   -0.0038   -0.0189 C   0  0  0  0  0  0
   -0.6813   -1.2075    0.2747 N   0  0  0  0  0  0
   -2.0825   -1.0029   -0.1578 C   0  0  0  0  0  0
    1.4704    0.0224    0.0357 C   0  0  0  0  0  0
    2.2083    0.9686   -0.6985 C   0  0  0  0  0  0
    3.5388    1.0619   -0.6847 N   0  0  0  0  0  0
    4.2100    0.1797    0.0703 C   0  0  0  0  0  0
    3.5873   -0.8150    0.8238 C   0  0  0  0  0  0
    2.1973   -0.8949    0.8074 C   0  0  0  0  0  0
   -2.9421    0.8946   -0.8939 H   0  0  0  0  0  0
   -2.6947    0.8518    0.8516 H   0  0  0  0  0  0
   -2.7759   -1.5418    0.4937 H   0  0  0  0  0  0
   -2.2272   -1.3635   -1.1872 H   0  0  0  0  0  0
    1.6830    1.6737   -1.3397 H   0  0  0  0  0  0
    5.2943    0.2729    0.0675 H   0  0  0  0  0  0
    4.1797   -1.5056    1.4159 H   0  0  0  0  0  0
    1.6719   -1.6379    1.3995 H   0  0  0  0  0  0
   -0.5533    2.0568   -0.3469 H   0  0  0  0  0  0
   -0.2473   -2.0297   -0.1336 H   0  0  0  0  0  0
  1  5  1  0  0  0
  1 12  1  0  0  0
  1 13  1  0  0  0
  1  2  1  0  0  0
  2 20  1  0  0  0
  2  3  2  0  0  0
  3  6  1  0  0  0
  3  4  1  0  0  0
  4  5  1  0  0  0
  4 21  1  0  0  0
  5 14  1  0  0  0
  5 15  1  0  0  0
  6 11  1  0  0  0
  6  7  2  0  0  0
  7  8  1  0  0  0
  7 16  1  0  0  0
  8  9  2  0  0  0
  9 10  1  0  0  0
  9 17  1  0  0  0
 10 11  2  0  0  0
 10 18  1  0  0  0
 11 19  1  0  0  0
M  END
>  <i_m_Spin_multiplicity> (1)
1

>  <s_j_Task> (1)
Single Point

>  <s_j_QM_Method> (1)
DFT(b3lyp-d3)

>  <s_j_QM_Basis> (1)
cc-pvtz(-f)

>  <i_j_Number_of_canonical_orbitals> (1)
338

>  <i_j_Geometry_convergence_category> (1)
0

>  <r_j_Gas_Phase_Energy> (1)
-458.615271465855

>  <r_j_Final_Energy> (1)
-458.615271465855

>  <r_j_HOMO> (1)
-0.203298336102546

>  <r_j_LUMO> (1)
-0.0436712472572483

>  <r_j_Polarizability> (1)
117.658407846346

>  <r_j_QM_Dipole_(debye)> (1)
2.55255907764752

>  <r_j_QM_Dipole_X_(debye)> (1)
-1.50293739483609

>  <r_j_QM_Dipole_Y_(debye)> (1)
-2.02173990039006

>  <r_j_QM_Dipole_Z_(debye)> (1)
0.411466653879555

>  <r_j_Lowest_Frequency_(cm-1)> (1)
98.5170401030061

>  <r_j_Highest_Frequency_(cm-1)> (1)
3483.35813853257

>  <r_j_2nd_Lowest_Frequency_(cm-1)> (1)
121.846172631158

>  <i_j_Num_Negative_Frequencies> (1)
0

>  <r_j_Zero_Point_Energy_(kcal/mol)> (1)
109.348794959616

>  <r_j_Entropy_(cal/mol/K)_298.15K_1.00E+00atm> (1)
90.9172951859859

>  <r_j_Enthalpy_(kcal/mol)_298.15K_1.00E+00atm> (1)
5.93717087031612

>  <r_j_Free_Energy_(kcal/mol)_298.15K_1.00E+00atm> (1)
-21.1698206893856

>  <r_j_Internal_Energy_(kcal/mol)_298.15K_1.00E+00atm> (1)
5.34468528148885

>  <r_j_Heat_Capacity_(cal/mol/K)_298.15K_1.00E+00atm> (1)
34.0750267539352

>  <r_j_ln(Q)_298.15K_1.00E+00atm> (1)
35.7305242331508

>  <r_j_Total_Internal_Energy_(au)_298.15K_1.00E+00atm> (1)
-458.432495769671

>  <r_j_Total_Enthalpy_(au)_298.15K_1.00E+00atm> (1)
-458.431551583779

>  <r_j_Total_Free_Energy_(au)_298.15K_1.00E+00atm> (1)
-458.474749324778

>  <r_lp_tautomer_probability> (1)
1

>  <r_epik_Ionization_Penalty> (1)
  0.0029

>  <r_epik_Ionization_Penalty_Charging> (1)
  0.0000

>  <r_epik_Ionization_Penalty_Neutral> (1)
  0.0029

>  <r_epik_State_Penalty> (1)
  0.0000

>  <r_epik_Charging_Adjusted_Penalty> (1)
5.9728e-06

>  <i_epik_Tot_Q> (1)
0

>  <i_epik_Tot_abs_Q> (1)
0

>  <s_lp_Force_Field> (1)
S-OPLS

>  <r_lp_Energy> (1)
14.9072

>  <b_lp_Chiralities_Consistent> (1)
1

>  <s_epik_Chemistry_Notes> (1)
This compound has an imine and may undergo hydrolysis.

$$$$
