4458_Geraniol
                    3D
 Schrodinger Suite 2021-3.
 29 28  0  0  1  0            999 V2000
   -2.3414    3.0259    0.0764 C   0  0  0  0  0  0
   -1.8237    1.6109   -0.0286 C   0  0  0  0  0  0
   -0.7516    1.2146    0.6738 C   0  0  0  0  0  0
   -0.0851   -0.1335    0.6774 C   0  0  0  0  0  0
    1.3140   -0.0890    0.0101 C   0  0  0  0  0  0
    2.0264   -1.4272    0.0339 C   0  0  0  0  0  0
    2.0809   -2.1763   -1.0767 C   0  0  0  0  0  0
    2.7197   -3.5188   -1.2678 C   0  0  0  0  0  0
    1.7709   -4.3598   -1.9312 O   0  0  0  0  0  0
    2.6300   -1.8101    1.3633 C   0  0  0  0  0  0
   -2.6104    0.7327   -0.9701 C   0  0  0  0  0  0
   -3.3821    3.0393    0.4274 H   0  0  0  0  0  0
   -2.3399    3.5183   -0.9054 H   0  0  0  0  0  0
   -1.7443    3.6342    0.7620 H   0  0  0  0  0  0
   -0.2671    1.9578    1.3096 H   0  0  0  0  0  0
    0.0206   -0.4772    1.7154 H   0  0  0  0  0  0
   -0.6884   -0.8885    0.1650 H   0  0  0  0  0  0
    1.1898    0.2549   -1.0224 H   0  0  0  0  0  0
    1.9251    0.6689    0.5212 H   0  0  0  0  0  0
    1.6173   -1.7924   -1.9851 H   0  0  0  0  0  0
    3.6283   -3.4015   -1.8854 H   0  0  0  0  0  0
    3.0397   -3.9567   -0.3109 H   0  0  0  0  0  0
    2.2285   -5.1698   -2.1905 H   0  0  0  0  0  0
    3.4698   -1.1454    1.6051 H   0  0  0  0  0  0
    2.9997   -2.8369    1.3913 H   0  0  0  0  0  0
    1.8996   -1.6952    2.1725 H   0  0  0  0  0  0
   -3.6594    0.6684   -0.6518 H   0  0  0  0  0  0
   -2.2193   -0.2832   -1.0465 H   0  0  0  0  0  0
   -2.6197    1.1660   -1.9789 H   0  0  0  0  0  0
  1  2  1  0  0  0
  1 12  1  0  0  0
  1 13  1  0  0  0
  1 14  1  0  0  0
  2  3  2  0  0  0
  2 11  1  0  0  0
  3  4  1  0  0  0
  3 15  1  0  0  0
  4  5  1  0  0  0
  4 16  1  0  0  0
  4 17  1  0  0  0
  5  6  1  0  0  0
  5 18  1  0  0  0
  5 19  1  0  0  0
  6  7  2  0  0  0
  6 10  1  0  0  0
  7  8  1  0  0  0
  7 20  1  0  0  0
  8  9  1  0  0  0
  8 21  1  0  0  0
  8 22  1  0  0  0
  9 23  1  0  0  0
 10 24  1  0  0  0
 10 25  1  0  0  0
 10 26  1  0  0  0
 11 27  1  0  0  0
 11 28  1  0  0  0
 11 29  1  0  0  0
M  END
>  <i_m_Spin_multiplicity> (1)
1

>  <s_j_Task> (1)
Single Point

>  <s_j_QM_Method> (1)
DFT(b3lyp-d3)

>  <s_j_QM_Basis> (1)
cc-pvtz(-f)

>  <i_j_Number_of_canonical_orbitals> (1)
410

>  <i_j_Geometry_convergence_category> (1)
0

>  <r_j_Gas_Phase_Energy> (1)
-467.275346762918

>  <r_j_Final_Energy> (1)
-467.275346762918

>  <r_j_HOMO> (1)
-0.227300729096813

>  <r_j_LUMO> (1)
-0.00357767774260367

>  <r_j_Polarizability> (1)
130.027680474308

>  <r_j_QM_Dipole_(debye)> (1)
1.29168691570857

>  <r_j_QM_Dipole_X_(debye)> (1)
1.22621720281574

>  <r_j_QM_Dipole_Y_(debye)> (1)
-0.222279432517949

>  <r_j_QM_Dipole_Z_(debye)> (1)
0.339762142698334

>  <r_j_Lowest_Frequency_(cm-1)> (1)
53.0477505283745

>  <r_j_Highest_Frequency_(cm-1)> (1)
3765.04743552928

>  <r_j_2nd_Lowest_Frequency_(cm-1)> (1)
67.4059070073008

>  <i_j_Num_Negative_Frequencies> (1)
0

>  <r_j_Zero_Point_Energy_(kcal/mol)> (1)
162.541074437573

>  <r_j_Entropy_(cal/mol/K)_298.15K_1.00E+00atm> (1)
111.600025268801

>  <r_j_Enthalpy_(kcal/mol)_298.15K_1.00E+00atm> (1)
8.88513173020262

>  <r_j_Free_Energy_(kcal/mol)_298.15K_1.00E+00atm> (1)
-24.3884158036905

>  <r_j_Internal_Energy_(kcal/mol)_298.15K_1.00E+00atm> (1)
8.29264614137535

>  <r_j_Heat_Capacity_(cal/mol/K)_298.15K_1.00E+00atm> (1)
49.723504454818

>  <r_j_ln(Q)_298.15K_1.00E+00atm> (1)
41.1628844035907

>  <r_j_Total_Internal_Energy_(au)_298.15K_1.00E+00atm> (1)
-467.003105898443

>  <r_j_Total_Enthalpy_(au)_298.15K_1.00E+00atm> (1)
-467.002161712551

>  <r_j_Total_Free_Energy_(au)_298.15K_1.00E+00atm> (1)
-467.05518648608

>  <r_lp_tautomer_probability> (1)
1

>  <r_epik_Ionization_Penalty> (1)
  0.0000

>  <r_epik_Ionization_Penalty_Charging> (1)
  0.0000

>  <r_epik_Ionization_Penalty_Neutral> (1)
  0.0000

>  <r_epik_State_Penalty> (1)
  0.0000

>  <r_epik_Charging_Adjusted_Penalty> (1)
0

>  <i_epik_Tot_Q> (1)
0

>  <i_epik_Tot_abs_Q> (1)
0

>  <s_lp_Force_Field> (1)
S-OPLS

>  <r_lp_Energy> (1)
-2.15731

>  <b_lp_Chiralities_Consistent> (1)
1

$$$$
