454_Octanal
                    3D
 Schrodinger Suite 2021-3.
 25 24  0  0  1  0            999 V2000
   -2.6437    2.9336    0.0229 C   0  0  0  0  0  0
   -2.0940    1.5046   -0.0087 C   0  0  0  0  0  0
   -0.5620    1.4523   -0.0152 C   0  0  0  0  0  0
   -0.0029    0.0256   -0.0408 C   0  0  0  0  0  0
    1.5286   -0.0258   -0.0385 C   0  0  0  0  0  0
    2.0822   -1.4550   -0.0515 C   0  0  0  0  0  0
    3.6220   -1.4968   -0.0493 C   0  0  0  0  0  0
    4.1391   -2.9129    0.0363 C   0  0  0  0  0  0
    4.8483   -3.4430   -0.7904 O   0  0  0  0  0  0
   -3.7385    2.9438    0.0278 H   0  0  0  0  0  0
   -2.3084    3.5042   -0.8508 H   0  0  0  0  0  0
   -2.3008    3.4678    0.9165 H   0  0  0  0  0  0
   -2.4702    0.9458    0.8592 H   0  0  0  0  0  0
   -2.4769    0.9814   -0.8955 H   0  0  0  0  0  0
   -0.1829    2.0082   -0.8849 H   0  0  0  0  0  0
   -0.1773    1.9782    0.8706 H   0  0  0  0  0  0
   -0.3860   -0.5303    0.8269 H   0  0  0  0  0  0
   -0.3832   -0.4989   -0.9288 H   0  0  0  0  0  0
    1.9150    0.5213   -0.9095 H   0  0  0  0  0  0
    1.9110    0.5021    0.8467 H   0  0  0  0  0  0
    1.6998   -2.0021    0.8216 H   0  0  0  0  0  0
    1.7081   -1.9867   -0.9360 H   0  0  0  0  0  0
    4.0371   -1.0284   -0.9471 H   0  0  0  0  0  0
    3.9929   -0.9478    0.8292 H   0  0  0  0  0  0
    3.8001   -3.4749    0.9399 H   0  0  0  0  0  0
  1  2  1  0  0  0
  1 10  1  0  0  0
  1 11  1  0  0  0
  1 12  1  0  0  0
  2  3  1  0  0  0
  2 13  1  0  0  0
  2 14  1  0  0  0
  3  4  1  0  0  0
  3 15  1  0  0  0
  3 16  1  0  0  0
  4  5  1  0  0  0
  4 17  1  0  0  0
  4 18  1  0  0  0
  5  6  1  0  0  0
  5 19  1  0  0  0
  5 20  1  0  0  0
  6  7  1  0  0  0
  6 21  1  0  0  0
  6 22  1  0  0  0
  7  8  1  0  0  0
  7 23  1  0  0  0
  7 24  1  0  0  0
  8  9  2  0  0  0
  8 25  1  0  0  0
M  END
>  <i_m_Spin_multiplicity> (1)
1

>  <s_j_Task> (1)
Single Point

>  <s_j_QM_Method> (1)
DFT(b3lyp-d3)

>  <s_j_QM_Basis> (1)
cc-pvtz(-f)

>  <i_j_Number_of_canonical_orbitals> (1)
349

>  <i_j_Geometry_convergence_category> (1)
0

>  <r_j_Gas_Phase_Energy> (1)
-389.867552487225

>  <r_j_Final_Energy> (1)
-389.867552487225

>  <r_j_HOMO> (1)
-0.271220229542774

>  <r_j_LUMO> (1)
-0.0467906924625776

>  <r_j_Polarizability> (1)
101.76884367907

>  <r_j_QM_Dipole_(debye)> (1)
3.08331213120909

>  <r_j_QM_Dipole_X_(debye)> (1)
-2.00939693411231

>  <r_j_QM_Dipole_Y_(debye)> (1)
1.80188128396062

>  <r_j_QM_Dipole_Z_(debye)> (1)
1.49075869883547

>  <r_j_Lowest_Frequency_(cm-1)> (1)
63.333388774777

>  <r_j_Highest_Frequency_(cm-1)> (1)
3049.62682434647

>  <r_j_2nd_Lowest_Frequency_(cm-1)> (1)
80.6327628864352

>  <i_j_Num_Negative_Frequencies> (1)
0

>  <r_j_Zero_Point_Energy_(kcal/mol)> (1)
142.174861320137

>  <r_j_Entropy_(cal/mol/K)_298.15K_1.00E+00atm> (1)
101.133623933266

>  <r_j_Enthalpy_(kcal/mol)_298.15K_1.00E+00atm> (1)
7.41656986412015

>  <r_j_Free_Energy_(kcal/mol)_298.15K_1.00E+00atm> (1)
-22.7364201115832

>  <r_j_Internal_Energy_(kcal/mol)_298.15K_1.00E+00atm> (1)
6.82408427529288

>  <r_j_Heat_Capacity_(cal/mol/K)_298.15K_1.00E+00atm> (1)
39.3037093330359

>  <r_j_ln(Q)_298.15K_1.00E+00atm> (1)
38.3746382027385

>  <r_j_Total_Internal_Energy_(au)_298.15K_1.00E+00atm> (1)
-389.63010755178

>  <r_j_Total_Enthalpy_(au)_298.15K_1.00E+00atm> (1)
-389.629163365887

>  <r_j_Total_Free_Energy_(au)_298.15K_1.00E+00atm> (1)
-389.677215214373

>  <r_lp_tautomer_probability> (1)
1

>  <r_epik_Ionization_Penalty> (1)
  0.0000

>  <r_epik_Ionization_Penalty_Charging> (1)
  0.0000

>  <r_epik_Ionization_Penalty_Neutral> (1)
  0.0000

>  <r_epik_State_Penalty> (1)
  0.0000

>  <r_epik_Charging_Adjusted_Penalty> (1)
0

>  <i_epik_Tot_Q> (1)
0

>  <i_epik_Tot_abs_Q> (1)
0

>  <s_lp_Force_Field> (1)
S-OPLS

>  <r_lp_Energy> (1)
2.986751

>  <b_lp_Chiralities_Consistent> (1)
1

$$$$
