460_Guaiacol
                    3D
 Schrodinger Suite 2021-3.
 17 17  0  0  1  0            999 V2000
   -0.6683    1.2043    0.0000 C   0  0  0  0  0  0
    0.0550   -0.0145    0.0000 O   0  0  0  0  0  0
    1.4172    0.0544    0.0000 C   0  0  0  0  0  0
    2.1649    1.2322    0.0000 C   0  0  0  0  0  0
    3.5647    1.1881    0.0000 C   0  0  0  0  0  0
    4.2233   -0.0345    0.0000 C   0  0  0  0  0  0
    3.4804   -1.2200    0.0000 C   0  0  0  0  0  0
    2.0891   -1.1894    0.0000 C   0  0  0  0  0  0
    1.3128   -2.3141    0.0000 O   0  0  0  0  0  0
   -1.7236    0.9276    0.0000 H   0  0  0  0  0  0
   -0.4532    1.8061   -0.8937 H   0  0  0  0  0  0
   -0.4531    1.8060    0.8937 H   0  0  0  0  0  0
    1.6631    2.1923    0.0000 H   0  0  0  0  0  0
    4.1275    2.1164    0.0000 H   0  0  0  0  0  0
    5.3078   -0.0786    0.0000 H   0  0  0  0  0  0
    3.9857   -2.1840    0.0000 H   0  0  0  0  0  0
    1.8935   -3.0860    0.0000 H   0  0  0  0  0  0
  1  2  1  0  0  0
  1 10  1  0  0  0
  1 11  1  0  0  0
  1 12  1  0  0  0
  2  3  1  0  0  0
  3  8  1  0  0  0
  3  4  2  0  0  0
  4  5  1  0  0  0
  4 13  1  0  0  0
  5  6  2  0  0  0
  5 14  1  0  0  0
  6  7  1  0  0  0
  6 15  1  0  0  0
  7  8  2  0  0  0
  7 16  1  0  0  0
  8  9  1  0  0  0
  9 17  1  0  0  0
M  END
>  <i_m_Spin_multiplicity> (1)
1

>  <s_j_Task> (1)
Single Point

>  <s_j_QM_Method> (1)
DFT(b3lyp-d3)

>  <s_j_QM_Basis> (1)
cc-pvtz(-f)

>  <i_j_Number_of_canonical_orbitals> (1)
275

>  <i_j_Geometry_convergence_category> (1)
0

>  <r_j_Gas_Phase_Energy> (1)
-422.141941374957

>  <r_j_Final_Energy> (1)
-422.141941374957

>  <r_j_HOMO> (1)
-0.211712110801871

>  <r_j_LUMO> (1)
-0.00431128542940773

>  <r_j_Polarizability> (1)
87.2517259888527

>  <r_j_QM_Dipole_(debye)> (1)
0.548396568589277

>  <r_j_QM_Dipole_X_(debye)> (1)
0.404029858589966

>  <r_j_QM_Dipole_Y_(debye)> (1)
0.370808130712068

>  <r_j_QM_Dipole_Z_(debye)> (1)
-2.46740520462009e-06

>  <r_j_Lowest_Frequency_(cm-1)> (1)
108.016723156904

>  <r_j_Highest_Frequency_(cm-1)> (1)
3773.1131112573

>  <r_j_2nd_Lowest_Frequency_(cm-1)> (1)
186.621126189899

>  <i_j_Num_Negative_Frequencies> (1)
0

>  <r_j_Zero_Point_Energy_(kcal/mol)> (1)
85.8112627297314

>  <r_j_Entropy_(cal/mol/K)_298.15K_1.00E+00atm> (1)
85.9551811369712

>  <r_j_Enthalpy_(kcal/mol)_298.15K_1.00E+00atm> (1)
5.47888925039043

>  <r_j_Free_Energy_(kcal/mol)_298.15K_1.00E+00atm> (1)
-20.1486480055975

>  <r_j_Internal_Energy_(kcal/mol)_298.15K_1.00E+00atm> (1)
4.88640366156316

>  <r_j_Heat_Capacity_(cal/mol/K)_298.15K_1.00E+00atm> (1)
30.5157741965398

>  <r_j_ln(Q)_298.15K_1.00E+00atm> (1)
34.006984111594

>  <r_j_Total_Internal_Energy_(au)_298.15K_1.00E+00atm> (1)
-421.997405442469

>  <r_j_Total_Enthalpy_(au)_298.15K_1.00E+00atm> (1)
-421.996461256577

>  <r_j_Total_Free_Energy_(au)_298.15K_1.00E+00atm> (1)
-422.037301337056

>  <r_lp_tautomer_probability> (1)
1

>  <r_epik_Ionization_Penalty> (1)
  0.0009

>  <r_epik_Ionization_Penalty_Charging> (1)
  0.0000

>  <r_epik_Ionization_Penalty_Neutral> (1)
  0.0009

>  <r_epik_State_Penalty> (1)
  0.0006

>  <r_epik_Charging_Adjusted_Penalty> (1)
0.000579828

>  <i_epik_Tot_Q> (1)
0

>  <i_epik_Tot_abs_Q> (1)
0

>  <s_lp_Force_Field> (1)
S-OPLS

>  <r_lp_Energy> (1)
13.4218

>  <b_lp_Chiralities_Consistent> (1)
1

$$$$
