4678_Panthenol
                    3D
 Schrodinger Suite 2021-3.
 33 32  0  0  1  0            999 V2000
   -0.5840   -0.7076    1.2585 C   0  0  0  0  0  0
   -0.0513   -0.0380   -0.0220 C   0  0  0  0  0  0
   -0.4263   -0.8825   -1.2514 C   0  0  0  0  0  0
   -0.6601    1.3684   -0.1553 C   0  0  0  0  0  0
   -2.0781    1.2566   -0.0960 O   0  0  0  0  0  0
    1.5074    0.0553    0.1203 C   0  0  0  0  0  0
    2.1801    0.7627   -1.0687 C   0  0  0  0  0  0
    2.5743    0.0979   -2.0272 O   0  0  0  0  0  0
    2.3079    2.1119   -0.9984 N   0  0  0  0  0  0
    2.7986    2.9094   -2.1176 C   0  0  0  0  0  0
    1.6825    3.2989   -3.0964 C   0  0  0  0  0  0
    2.1885    4.1828   -4.2296 C   0  0  0  0  0  0
    3.1953    3.4590   -4.9276 O   0  0  0  0  0  0
    2.0791   -1.2314    0.2275 O   0  0  0  0  0  0
   -0.3716   -0.0920    2.1413 H   0  0  0  0  0  0
   -0.1033   -1.6784    1.3953 H   0  0  0  0  0  0
   -1.6656   -0.8432    1.1960 H   0  0  0  0  0  0
   -0.0084   -0.4619   -2.1712 H   0  0  0  0  0  0
   -1.5134   -0.9267   -1.3496 H   0  0  0  0  0  0
   -0.0418   -1.8997   -1.1420 H   0  0  0  0  0  0
   -0.2851    2.0109    0.6644 H   0  0  0  0  0  0
   -0.3450    1.8245   -1.1055 H   0  0  0  0  0  0
   -2.4561    2.1242   -0.2831 H   0  0  0  0  0  0
    1.7325    0.6016    1.0485 H   0  0  0  0  0  0
    1.9233    2.5872   -0.1955 H   0  0  0  0  0  0
    3.2865    3.8035   -1.7133 H   0  0  0  0  0  0
    3.5519    2.3210   -2.6426 H   0  0  0  0  0  0
    1.2519    2.3825   -3.5142 H   0  0  0  0  0  0
    0.8831    3.8302   -2.5635 H   0  0  0  0  0  0
    1.3490    4.4501   -4.8912 H   0  0  0  0  0  0
    2.5884    5.1240   -3.8130 H   0  0  0  0  0  0
    3.5475    4.0221   -5.6279 H   0  0  0  0  0  0
    2.3863   -1.4356   -0.6743 H   0  0  0  0  0  0
  1  2  1  0  0  0
  1 15  1  0  0  0
  1 16  1  0  0  0
  1 17  1  0  0  0
  2  3  1  0  0  0
  2  4  1  0  0  0
  2  6  1  0  0  0
  3 18  1  0  0  0
  3 19  1  0  0  0
  3 20  1  0  0  0
  4  5  1  0  0  0
  4 21  1  0  0  0
  4 22  1  0  0  0
  5 23  1  0  0  0
  6  7  1  0  0  0
  6 14  1  0  0  0
  6 24  1  0  0  0
  7  8  2  0  0  0
  7  9  1  0  0  0
  9 10  1  0  0  0
  9 25  1  0  0  0
 10 11  1  0  0  0
 10 26  1  0  0  0
 10 27  1  0  0  0
 11 12  1  0  0  0
 11 28  1  0  0  0
 11 29  1  0  0  0
 12 13  1  0  0  0
 12 30  1  0  0  0
 12 31  1  0  0  0
 13 32  1  0  0  0
 14 33  1  0  0  0
M  END
>  <i_m_Spin_multiplicity> (1)
1

>  <s_j_Task> (1)
Single Point

>  <s_j_QM_Method> (1)
DFT(b3lyp-d3)

>  <s_j_QM_Basis> (1)
cc-pvtz(-f)

>  <i_j_Number_of_canonical_orbitals> (1)
490

>  <i_j_Geometry_convergence_category> (1)
3

>  <r_j_Gas_Phase_Energy> (1)
-710.33504999324

>  <r_j_Final_Energy> (1)
-710.33504999324

>  <r_j_HOMO> (1)
-0.241058816201576

>  <r_j_LUMO> (1)
0.0161202067883109

>  <r_j_Polarizability> (1)
130.523824356752

>  <r_j_QM_Dipole_(debye)> (1)
6.49792295044244

>  <r_j_QM_Dipole_X_(debye)> (1)
-0.784500050575416

>  <r_j_QM_Dipole_Y_(debye)> (1)
6.4199432637888

>  <r_j_QM_Dipole_Z_(debye)> (1)
-0.62601184514879

>  <r_j_Lowest_Frequency_(cm-1)> (1)
40.5069344793103

>  <r_j_Highest_Frequency_(cm-1)> (1)
3781.77210128743

>  <r_j_2nd_Lowest_Frequency_(cm-1)> (1)
57.1389364542187

>  <i_j_Num_Negative_Frequencies> (1)
0

>  <r_j_Zero_Point_Energy_(kcal/mol)> (1)
180.579866530153

>  <r_j_Entropy_(cal/mol/K)_298.15K_1.00E+00atm> (1)
122.096430828839

>  <r_j_Enthalpy_(kcal/mol)_298.15K_1.00E+00atm> (1)
10.4874023779864

>  <r_j_Free_Energy_(kcal/mol)_298.15K_1.00E+00atm> (1)
-25.9156484736319

>  <r_j_Internal_Energy_(kcal/mol)_298.15K_1.00E+00atm> (1)
9.89491678915916

>  <r_j_Heat_Capacity_(cal/mol/K)_298.15K_1.00E+00atm> (1)
60.7907342956805

>  <r_j_ln(Q)_298.15K_1.00E+00atm> (1)
43.7405549811389

>  <r_j_Total_Internal_Energy_(au)_298.15K_1.00E+00atm> (1)
-710.031509102743

>  <r_j_Total_Enthalpy_(au)_298.15K_1.00E+00atm> (1)
-710.030564916851

>  <r_j_Total_Free_Energy_(au)_298.15K_1.00E+00atm> (1)
-710.088576871398

>  <r_lp_tautomer_probability> (1)
1

>  <r_epik_Ionization_Penalty> (1)
  0.0000

>  <r_epik_Ionization_Penalty_Charging> (1)
  0.0000

>  <r_epik_Ionization_Penalty_Neutral> (1)
  0.0000

>  <r_epik_State_Penalty> (1)
  0.0000

>  <r_epik_Charging_Adjusted_Penalty> (1)
0

>  <i_epik_Tot_Q> (1)
0

>  <i_epik_Tot_abs_Q> (1)
0

>  <s_lp_Force_Field> (1)
S-OPLS

>  <r_lp_Energy> (1)
9.071774

>  <b_lp_Chiralities_Consistent> (1)
1

$$$$
