4685_Dichlorobenzene (mixed isomers)
                    3D
 Schrodinger Suite 2021-3.
 12 12  0  0  1  0            999 V2000
    2.0733    0.0029   -1.5908 C   0  0  0  0  0  0
    2.9840   -0.0132   -0.5354 C   0  0  0  0  0  0
    4.2937    0.4117   -0.7533 C   0  0  0  0  0  0
    4.7076    0.8523   -2.0095 C   0  0  0  0  0  0
    3.7968    0.8683   -3.0649 C   0  0  0  0  0  0
    2.4871    0.4435   -2.8470 C   0  0  0  0  0  0
    1.3391    0.4636   -4.1775 Cl  0  0  0  0  0  0
    5.4418    0.3915    0.5772 Cl  0  0  0  0  0  0
    1.0510   -0.3242   -1.4384 H   0  0  0  0  0  0
    2.6784   -0.3529    0.4477 H   0  0  0  0  0  0
    5.7298    1.1794   -2.1620 H   0  0  0  0  0  0
    4.1024    1.2081   -4.0480 H   0  0  0  0  0  0
  1  6  1  0  0  0
  1  2  2  0  0  0
  1  9  1  0  0  0
  2  3  1  0  0  0
  2 10  1  0  0  0
  3  4  2  0  0  0
  3  8  1  0  0  0
  4  5  1  0  0  0
  4 11  1  0  0  0
  5  6  2  0  0  0
  5 12  1  0  0  0
  6  7  1  0  0  0
M  END
> <i_m_Spin_multiplicity>
1

> <s_j_Task>
Single Point

> <s_j_QM_Method>
DFT(b3lyp-d3)

> <s_j_QM_Basis>
cc-pvtz(-f)

> <i_j_Number_of_canonical_orbitals>
224

> <i_j_Geometry_convergence_category>
0

> <r_j_Gas_Phase_Energy>
-1151.59193759438

> <r_j_Final_Energy>
-1151.59193759438

> <r_j_HOMO>
-0.240604914051496

> <r_j_LUMO>
-0.0283117520772819

> <r_j_Polarizability>
90.2020307964151

> <r_j_QM_Dipole_(debye)>
0.00195470451022624

> <r_j_QM_Dipole_X_(debye)>
0.00164934353602186

> <r_j_QM_Dipole_Y_(debye)>
0.00074749216509365

> <r_j_QM_Dipole_Z_(debye)>
-0.000736064593364808

> <r_j_Lowest_Frequency_(cm-1)>
104.56674277972

> <r_j_Highest_Frequency_(cm-1)>
3170.34232659029

> <r_j_2nd_Lowest_Frequency_(cm-1)>
221.333812338954

> <i_j_Num_Negative_Frequencies>
0

> <r_j_Zero_Point_Energy_(kcal/mol)>
50.8136108880796

> <r_j_Entropy_(cal/mol/K)_298.15K_1.00E+00atm>
80.4385369724947

> <r_j_Enthalpy_(kcal/mol)_298.15K_1.00E+00atm>
4.75205468806492

> <r_j_Free_Energy_(kcal/mol)_298.15K_1.00E+00atm>
-19.2306951102844

> <r_j_Internal_Energy_(kcal/mol)_298.15K_1.00E+00atm>
4.15956909923765

> <r_j_Heat_Capacity_(cal/mol/K)_298.15K_1.00E+00atm>
24.6417168645582

> <r_j_ln(Q)_298.15K_1.00E+00atm>
32.4576588408645

> <r_j_Total_Internal_Energy_(au)_298.15K_1.00E+00atm>
-1151.50433225515

> <r_j_Total_Enthalpy_(au)_298.15K_1.00E+00atm>
-1151.50338806926

> <r_j_Total_Free_Energy_(au)_298.15K_1.00E+00atm>
-1151.54160701407

> <r_lp_tautomer_probability>
1

> <r_epik_Ionization_Penalty>
  0.0000

> <r_epik_Ionization_Penalty_Charging>
  0.0000

> <r_epik_Ionization_Penalty_Neutral>
  0.0000

> <r_epik_State_Penalty>
  0.0000

> <r_epik_Charging_Adjusted_Penalty>
0

> <i_epik_Tot_Q>
0

> <i_epik_Tot_abs_Q>
0

> <s_lp_Force_Field>
S-OPLS

> <r_lp_Energy>
7.1573

> <b_lp_Chiralities_Consistent>
1

$$$$
