4837_Diethylenediamine
                    3D
 Schrodinger Suite 2021-3.
 17 17  0  0  1  0            999 V2000
    0.1364   -4.1723   -2.8819 C   0  0  0  0  0  0
   -0.2152   -3.3867   -4.1420 C   0  0  0  0  0  0
   -0.6760   -1.9919   -3.7333 N   0  3  1  0  0  0
    0.3413   -1.2708   -2.8558 C   0  0  0  0  0  0
    0.6661   -2.1576   -1.6572 C   0  0  0  0  0  0
    1.1551   -3.4378   -2.1468 N   0  0  0  0  0  0
    0.5264   -5.1457   -3.1906 H   0  0  0  0  0  0
   -0.7880   -4.3577   -2.3009 H   0  0  0  0  0  0
    0.6634   -3.2467   -4.7744 H   0  0  0  0  0  0
   -1.0248   -3.8430   -4.7153 H   0  0  0  0  0  0
   -0.8820   -1.4315   -4.5661 H   0  0  0  0  0  0
    1.2248   -1.1124   -3.4769 H   0  0  0  0  0  0
   -0.0962   -0.3123   -2.5692 H   0  0  0  0  0  0
    1.4429   -1.6595   -1.0714 H   0  0  0  0  0  0
   -0.2309   -2.2384   -1.0126 H   0  0  0  0  0  0
    1.5575   -3.9964   -1.4020 H   0  0  0  0  0  0
   -1.5580   -2.0758   -3.2137 H   0  0  0  0  0  0
  1  6  1  0  0  0
  1  2  1  0  0  0
  1  7  1  0  0  0
  1  8  1  0  0  0
  2  3  1  0  0  0
  2  9  1  0  0  0
  2 10  1  0  0  0
  3  4  1  0  0  0
  3 11  1  0  0  0
  3 17  1  0  0  0
  4  5  1  0  0  0
  4 12  1  0  0  0
  4 13  1  0  0  0
  5  6  1  0  0  0
  5 14  1  0  0  0
  5 15  1  0  0  0
  6 16  1  0  0  0
M  END
>  <i_m_Spin_multiplicity> (1)
1

>  <s_j_Task> (1)
Single Point

>  <s_j_QM_Method> (1)
DFT(b3lyp-d3)

>  <s_j_QM_Basis> (1)
cc-pvtz(-f)

>  <i_j_Number_of_canonical_orbitals> (1)
236

>  <i_j_Geometry_convergence_category> (1)
3

>  <r_j_Gas_Phase_Energy> (1)
-268.412958947688

>  <r_j_Final_Energy> (1)
-268.412958947688

>  <r_j_HOMO> (1)
-0.404366821146914

>  <r_j_LUMO> (1)
-0.162380271480263

>  <r_j_Polarizability> (1)
57.973442028803

>  <r_j_QM_Dipole_(debye)> (1)
3.84376637146833

>  <r_j_QM_Dipole_X_(debye)> (1)
-2.89126240195296

>  <r_j_QM_Dipole_Y_(debye)> (1)
1.82680145514802

>  <r_j_QM_Dipole_Z_(debye)> (1)
-1.75440533656081

>  <r_j_Lowest_Frequency_(cm-1)> (1)
270.587691544491

>  <r_j_Highest_Frequency_(cm-1)> (1)
3515.84689136096

>  <r_j_2nd_Lowest_Frequency_(cm-1)> (1)
285.820077118524

>  <i_j_Num_Negative_Frequencies> (1)
0

>  <r_j_Zero_Point_Energy_(kcal/mol)> (1)
101.900626265269

>  <r_j_Entropy_(cal/mol/K)_298.15K_1.00E+00atm> (1)
73.3227586843824

>  <r_j_Enthalpy_(kcal/mol)_298.15K_1.00E+00atm> (1)
3.97541440684749

>  <r_j_Free_Energy_(kcal/mol)_298.15K_1.00E+00atm> (1)
-17.8857660949011

>  <r_j_Internal_Energy_(kcal/mol)_298.15K_1.00E+00atm> (1)
3.38292881802021

>  <r_j_Heat_Capacity_(cal/mol/K)_298.15K_1.00E+00atm> (1)
21.5750813113645

>  <r_j_ln(Q)_298.15K_1.00E+00atm> (1)
30.1876812401513

>  <r_j_Total_Internal_Energy_(au)_298.15K_1.00E+00atm> (1)
-268.245178921861

>  <r_j_Total_Enthalpy_(au)_298.15K_1.00E+00atm> (1)
-268.244234735969

>  <r_j_Total_Free_Energy_(au)_298.15K_1.00E+00atm> (1)
-268.27907274487

>  <r_epik_Ionization_Penalty> (1)
  0.0180

>  <r_epik_Ionization_Penalty_Charging> (1)
  0.0033

>  <r_epik_Ionization_Penalty_Neutral> (1)
  0.0146

>  <r_epik_State_Penalty> (1)
  0.0138

>  <r_epik_Charging_Adjusted_Penalty> (1)
0.017094

>  <i_epik_Tot_Q> (1)
1

>  <i_epik_Tot_abs_Q> (1)
1

>  <s_lp_Force_Field> (1)
S-OPLS

>  <r_lp_Energy> (1)
13.3604

>  <b_lp_Chiralities_Consistent> (1)
1

$$$$
