4900_Prednisone
                    3D
 Schrodinger Suite 2021-3.
 52 55  0  0  1  0            999 V2000
   -1.8683    0.1233    1.6471 C   0  0  0  0  0  0
   -0.6294   -0.7004    1.2474 C   0  0  0  0  0  0
    0.3115   -0.7901    2.4760 C   0  0  0  0  0  0
   -0.2984   -1.7018    3.5189 C   0  0  0  0  0  0
   -0.5520   -1.3135    4.6450 O   0  0  0  0  0  0
   -0.6299   -3.1256    3.0400 C   0  0  0  0  0  0
   -0.3767   -3.2708    1.5188 C   0  0  0  0  0  0
   -1.0752   -2.1301    0.7566 C   0  0  0  0  0  0
   -0.8354   -2.1778   -0.7760 C   0  0  0  0  0  0
   -0.6426   -0.7230   -1.2111 C   0  0  0  0  0  0
    0.0542   -0.0352   -0.0198 C   0  0  0  0  0  0
    1.5710   -0.3129   -0.0329 C   0  0  0  0  0  0
    1.9992   -1.4186   -0.3112 O   0  0  0  0  0  0
    2.5281    0.8318    0.3189 C   0  0  0  0  0  0
    2.1273    1.6002    1.4361 O   0  0  0  0  0  0
   -0.0695    1.3916   -0.0794 O   0  0  0  0  0  0
   -0.8118   -4.6573    1.0330 C   0  0  0  0  0  0
   -0.0602   -5.7547    1.8067 C   0  0  0  0  0  0
   -0.2895   -5.5986    3.2876 C   0  0  0  0  0  0
   -0.8482   -6.5857    4.0113 C   0  0  0  0  0  0
   -1.1790   -6.4649    5.4424 C   0  0  0  0  0  0
   -1.6699   -7.3954    6.0784 O   0  0  0  0  0  0
   -0.8970   -5.1528    6.0499 C   0  0  0  0  0  0
   -0.3455   -4.1519    5.3507 C   0  0  0  0  0  0
    0.0774   -4.2529    3.9029 C   0  0  0  0  0  0
    1.6218   -4.0631    3.8781 C   0  0  0  0  0  0
   -1.5925    1.1350    1.9578 H   0  0  0  0  0  0
   -2.3791   -0.3479    2.4918 H   0  0  0  0  0  0
   -2.5954    0.1871    0.8290 H   0  0  0  0  0  0
    1.2774   -1.2196    2.1896 H   0  0  0  0  0  0
    0.5060    0.1910    2.9101 H   0  0  0  0  0  0
   -1.7085   -3.2460    3.2167 H   0  0  0  0  0  0
    0.6989   -3.1800    1.3192 H   0  0  0  0  0  0
   -2.1512   -2.2269    0.9518 H   0  0  0  0  0  0
    0.0790   -2.7334   -0.9904 H   0  0  0  0  0  0
   -1.6577   -2.6649   -1.3071 H   0  0  0  0  0  0
   -0.0747   -0.6151   -2.1388 H   0  0  0  0  0  0
   -1.6118   -0.2286   -1.3619 H   0  0  0  0  0  0
    3.4945    0.3771    0.5484 H   0  0  0  0  0  0
    2.6494    1.4447   -0.5906 H   0  0  0  0  0  0
    1.2878    2.0141    1.1801 H   0  0  0  0  0  0
   -1.0003    1.6174   -0.1973 H   0  0  0  0  0  0
   -1.8934   -4.7784    1.1844 H   0  0  0  0  0  0
   -0.6223   -4.7653   -0.0396 H   0  0  0  0  0  0
   -0.3826   -6.7485    1.4823 H   0  0  0  0  0  0
    1.0109   -5.6762    1.5748 H   0  0  0  0  0  0
   -1.1013   -7.5391    3.5541 H   0  0  0  0  0  0
   -1.1563   -5.0405    7.0986 H   0  0  0  0  0  0
   -0.1507   -3.1992    5.8295 H   0  0  0  0  0  0
    2.1038   -4.8697    4.4362 H   0  0  0  0  0  0
    1.8948   -3.1143    4.3504 H   0  0  0  0  0  0
    2.0205   -4.0644    2.8611 H   0  0  0  0  0  0
  1  2  1  0  0  0
  1 27  1  0  0  0
  1 28  1  0  0  0
  1 29  1  0  0  0
  2  8  1  0  0  0
  2 11  1  0  0  0
  2  3  1  0  0  0
  3  4  1  0  0  0
  3 30  1  0  0  0
  3 31  1  0  0  0
  4  5  2  0  0  0
  4  6  1  0  0  0
  6 25  1  0  0  0
  6  7  1  0  0  0
  6 32  1  0  0  0
  7  8  1  0  0  0
  7 17  1  0  0  0
  7 33  1  0  0  0
  8  9  1  0  0  0
  8 34  1  0  0  0
  9 10  1  0  0  0
  9 35  1  0  0  0
  9 36  1  0  0  0
 10 11  1  0  0  0
 10 37  1  0  0  0
 10 38  1  0  0  0
 11 12  1  0  0  0
 11 16  1  0  0  0
 12 13  2  0  0  0
 12 14  1  0  0  0
 14 15  1  0  0  0
 14 39  1  0  0  0
 14 40  1  0  0  0
 15 41  1  0  0  0
 16 42  1  0  0  0
 17 18  1  0  0  0
 17 43  1  0  0  0
 17 44  1  0  0  0
 18 19  1  0  0  0
 18 45  1  0  0  0
 18 46  1  0  0  0
 19 25  1  0  0  0
 19 20  2  0  0  0
 20 21  1  0  0  0
 20 47  1  0  0  0
 21 22  2  0  0  0
 21 23  1  0  0  0
 23 24  2  0  0  0
 23 48  1  0  0  0
 24 25  1  0  0  0
 24 49  1  0  0  0
 25 26  1  0  0  0
 26 50  1  0  0  0
 26 51  1  0  0  0
 26 52  1  0  0  0
M  END
>  <i_m_Spin_multiplicity> (1)
1

>  <s_j_Task> (1)
Single Point

>  <s_j_QM_Method> (1)
DFT(b3lyp-d3)

>  <s_j_QM_Basis> (1)
cc-pvtz(-f)

>  <i_j_Number_of_canonical_orbitals> (1)
815

>  <i_j_Geometry_convergence_category> (1)
1

>  <r_j_Gas_Phase_Energy> (1)
-1192.43337609946

>  <r_j_Final_Energy> (1)
-1192.43337609946

>  <r_j_HOMO> (1)
-0.270326404262283

>  <r_j_LUMO> (1)
-0.113094752604161

>  <r_j_Polarizability> (1)
244.117961447047

>  <r_j_QM_Dipole_(debye)> (1)
8.018002527865

>  <r_j_QM_Dipole_X_(debye)> (1)
-0.647681012847025

>  <r_j_QM_Dipole_Y_(debye)> (1)
4.20645809683214

>  <r_j_QM_Dipole_Z_(debye)> (1)
-6.79518830659183

>  <r_j_Lowest_Frequency_(cm-1)> (1)
36.0833231604334

>  <r_j_Highest_Frequency_(cm-1)> (1)
3776.86059797281

>  <r_j_2nd_Lowest_Frequency_(cm-1)> (1)
58.1652519974417

>  <i_j_Num_Negative_Frequencies> (1)
0

>  <r_j_Zero_Point_Energy_(kcal/mol)> (1)
275.391448809817

>  <r_j_Entropy_(cal/mol/K)_298.15K_1.00E+00atm> (1)
148.350270099034

>  <r_j_Enthalpy_(kcal/mol)_298.15K_1.00E+00atm> (1)
14.5573511177674

>  <r_j_Free_Energy_(kcal/mol)_298.15K_1.00E+00atm> (1)
-29.6732819122596

>  <r_j_Internal_Energy_(kcal/mol)_298.15K_1.00E+00atm> (1)
13.9648655289402

>  <r_j_Heat_Capacity_(cal/mol/K)_298.15K_1.00E+00atm> (1)
94.0639507349781

>  <r_j_ln(Q)_298.15K_1.00E+00atm> (1)
50.0827066038734

>  <r_j_Total_Internal_Energy_(au)_298.15K_1.00E+00atm> (1)
-1191.97225745795

>  <r_j_Total_Enthalpy_(au)_298.15K_1.00E+00atm> (1)
-1191.97131327206

>  <r_j_Total_Free_Energy_(au)_298.15K_1.00E+00atm> (1)
-1192.0417992729

>  <r_lp_tautomer_probability> (1)
1

>  <r_epik_Ionization_Penalty> (1)
  0.0000

>  <r_epik_Ionization_Penalty_Charging> (1)
  0.0000

>  <r_epik_Ionization_Penalty_Neutral> (1)
  0.0000

>  <r_epik_State_Penalty> (1)
  0.0000

>  <r_epik_Charging_Adjusted_Penalty> (1)
0

>  <i_epik_Tot_Q> (1)
0

>  <i_epik_Tot_abs_Q> (1)
0

>  <s_lp_Force_Field> (1)
S-OPLS

>  <r_lp_Energy> (1)
43.1986

>  <b_lp_Chiralities_Consistent> (1)
1

$$$$
