4944_2-(1-methylethoxy)phenol methylcarbamate
                    3D
 Schrodinger Suite 2021-3.
 30 30  0  0  1  0            999 V2000
    0.2362   -0.5272   -1.5847 C   0  0  0  0  0  0
    0.3374    0.2230   -0.2640 C   0  0  0  0  0  0
    0.1727    1.7317   -0.4269 C   0  0  0  0  0  0
    1.6528   -0.1022    0.2375 O   0  0  0  0  0  0
    2.0537    0.3679    1.4512 C   0  0  0  0  0  0
    1.2197    0.5753    2.5528 C   0  0  0  0  0  0
    1.7581    1.0017    3.7691 C   0  0  0  0  0  0
    3.1270    1.2240    3.9013 C   0  0  0  0  0  0
    3.9651    1.0327    2.8004 C   0  0  0  0  0  0
    3.4300    0.6178    1.5911 C   0  0  0  0  0  0
    4.2827    0.3746    0.5218 O   0  0  0  0  0  0
    4.0851    1.1347   -0.6152 C   0  0  0  0  0  0
    3.4511    2.1687   -0.6567 O   0  0  0  0  0  0
    4.7587    0.5628   -1.6466 N   0  0  0  0  0  0
    4.6476    1.0831   -2.9952 C   0  0  0  0  0  0
   -0.7512   -0.3814   -2.0320 H   0  0  0  0  0  0
    0.4002   -1.5975   -1.4321 H   0  0  0  0  0  0
    0.9948   -0.1556   -2.2808 H   0  0  0  0  0  0
   -0.4187   -0.1715    0.4305 H   0  0  0  0  0  0
   -0.8051    1.9556   -0.8653 H   0  0  0  0  0  0
    0.9645    2.1201   -1.0717 H   0  0  0  0  0  0
    0.2444    2.2454    0.5348 H   0  0  0  0  0  0
    0.1540    0.3974    2.4631 H   0  0  0  0  0  0
    1.0968    1.1567    4.6164 H   0  0  0  0  0  0
    3.5424    1.5544    4.8478 H   0  0  0  0  0  0
    5.0337    1.2109    2.8585 H   0  0  0  0  0  0
    5.1067   -0.3722   -1.4980 H   0  0  0  0  0  0
    5.5873    0.9310   -3.5330 H   0  0  0  0  0  0
    4.4407    2.1521   -2.9319 H   0  0  0  0  0  0
    3.8347    0.6063   -3.5589 H   0  0  0  0  0  0
  1  2  1  0  0  0
  1 16  1  0  0  0
  1 17  1  0  0  0
  1 18  1  0  0  0
  2  3  1  0  0  0
  2  4  1  0  0  0
  2 19  1  0  0  0
  3 20  1  0  0  0
  3 21  1  0  0  0
  3 22  1  0  0  0
  4  5  1  0  0  0
  5 10  1  0  0  0
  5  6  2  0  0  0
  6  7  1  0  0  0
  6 23  1  0  0  0
  7  8  2  0  0  0
  7 24  1  0  0  0
  8  9  1  0  0  0
  8 25  1  0  0  0
  9 10  2  0  0  0
  9 26  1  0  0  0
 10 11  1  0  0  0
 11 12  1  0  0  0
 12 13  2  0  0  0
 12 14  1  0  0  0
 14 15  1  0  0  0
 14 27  1  0  0  0
 15 28  1  0  0  0
 15 29  1  0  0  0
 15 30  1  0  0  0
M  END
> <i_m_Spin_multiplicity>
1

> <s_j_Task>
Single Point

> <s_j_QM_Method>
DFT(b3lyp-d3)

> <s_j_QM_Basis>
cc-pvtz(-f)

> <i_j_Number_of_canonical_orbitals>
476

> <i_j_Geometry_convergence_category>
3

> <r_j_Gas_Phase_Energy>
-708.908802676115

> <r_j_Final_Energy>
-708.908802676115

> <r_j_HOMO>
-0.228390479637096

> <r_j_LUMO>
-0.0170075940382696

> <r_j_Polarizability>
145.240088437212

> <r_j_QM_Dipole_(debye)>
2.18743203040087

> <r_j_QM_Dipole_X_(debye)>
-0.318906766821284

> <r_j_QM_Dipole_Y_(debye)>
-1.62137919870321

> <r_j_QM_Dipole_Z_(debye)>
-1.43327835946539

> <r_j_Lowest_Frequency_(cm-1)>
46.9401552509839

> <r_j_Highest_Frequency_(cm-1)>
3594.38839187175

> <r_j_2nd_Lowest_Frequency_(cm-1)>
79.5923186840563

> <i_j_Num_Negative_Frequencies>
0

> <r_j_Zero_Point_Energy_(kcal/mol)>
155.654177665608

> <r_j_Entropy_(cal/mol/K)_298.15K_1.00E+00atm>
117.576596499016

> <r_j_Enthalpy_(kcal/mol)_298.15K_1.00E+00atm>
9.70134807469574

> <r_j_Free_Energy_(kcal/mol)_298.15K_1.00E+00atm>
-25.3541141714859

> <r_j_Internal_Energy_(kcal/mol)_298.15K_1.00E+00atm>
9.10886248586847

> <r_j_Heat_Capacity_(cal/mol/K)_298.15K_1.00E+00atm>
56.0879206268644

> <r_j_ln(Q)_298.15K_1.00E+00atm>
42.7927947102816

> <r_j_Total_Internal_Energy_(au)_298.15K_1.00E+00atm>
-708.646236056759

> <r_j_Total_Enthalpy_(au)_298.15K_1.00E+00atm>
-708.645291870867

> <r_j_Total_Free_Energy_(au)_298.15K_1.00E+00atm>
-708.701156306261

> <r_lp_tautomer_probability>
1

> <r_epik_Ionization_Penalty>
  0.0000

> <r_epik_Ionization_Penalty_Charging>
  0.0000

> <r_epik_Ionization_Penalty_Neutral>
  0.0000

> <r_epik_State_Penalty>
  0.0000

> <r_epik_Charging_Adjusted_Penalty>
0

> <i_epik_Tot_Q>
0

> <i_epik_Tot_abs_Q>
0

> <s_lp_Force_Field>
S-OPLS

> <r_lp_Energy>
18.9758

> <b_lp_Chiralities_Consistent>
1

$$$$
