516973_Dimethylheptanol
                    3D
 Schrodinger Suite 2021-3.
 30 29  0  0  1  0            999 V2000
   -4.2286    2.8321   -0.0286 C   0  0  0  0  0  0
   -2.6993    2.8582    0.0468 C   0  0  0  0  0  0
   -2.0703    1.4619   -0.0245 C   0  0  0  0  0  0
   -0.5381    1.4804    0.0436 C   0  0  0  0  0  0
    0.0673    0.0719   -0.0038 C   0  0  0  0  0  0
    1.6151   -0.0214   -0.0066 C   0  0  0  0  0  0
    2.2000    0.5840   -1.2958 C   0  0  0  0  0  0
    2.2224    0.6807    1.2222 C   0  0  0  0  0  0
    2.0081   -1.5095    0.0258 C   0  0  0  0  0  0
    1.5192   -2.1026    1.2263 O   0  0  0  0  0  0
   -4.6530    3.8401    0.0258 H   0  0  0  0  0  0
   -4.6537    2.2462    0.7946 H   0  0  0  0  0  0
   -4.5692    2.3769   -0.9659 H   0  0  0  0  0  0
   -2.3009    3.4762   -0.7697 H   0  0  0  0  0  0
   -2.3848    3.3486    0.9783 H   0  0  0  0  0  0
   -2.4638    0.8438    0.7952 H   0  0  0  0  0  0
   -2.3886    0.9677   -0.9539 H   0  0  0  0  0  0
   -0.1543    2.0916   -0.7841 H   0  0  0  0  0  0
   -0.2320    1.9888    0.9668 H   0  0  0  0  0  0
   -0.3045   -0.5054    0.8502 H   0  0  0  0  0  0
   -0.3051   -0.4406   -0.9034 H   0  0  0  0  0  0
    3.2885    0.4602   -1.3306 H   0  0  0  0  0  0
    1.9922    1.6560   -1.3588 H   0  0  0  0  0  0
    1.7766    0.1085   -2.1884 H   0  0  0  0  0  0
    3.3102    0.5473    1.2425 H   0  0  0  0  0  0
    1.8154    0.2633    2.1465 H   0  0  0  0  0  0
    2.0233    1.7564    1.2058 H   0  0  0  0  0  0
    1.5909   -2.0130   -0.8628 H   0  0  0  0  0  0
    3.1064   -1.5914   -0.0340 H   0  0  0  0  0  0
    1.7691   -3.0343    1.2246 H   0  0  0  0  0  0
  1  2  1  0  0  0
  1 11  1  0  0  0
  1 12  1  0  0  0
  1 13  1  0  0  0
  2  3  1  0  0  0
  2 14  1  0  0  0
  2 15  1  0  0  0
  3  4  1  0  0  0
  3 16  1  0  0  0
  3 17  1  0  0  0
  4  5  1  0  0  0
  4 18  1  0  0  0
  4 19  1  0  0  0
  5  6  1  0  0  0
  5 20  1  0  0  0
  5 21  1  0  0  0
  6  7  1  0  0  0
  6  8  1  0  0  0
  6  9  1  0  0  0
  7 22  1  0  0  0
  7 23  1  0  0  0
  7 24  1  0  0  0
  8 25  1  0  0  0
  8 26  1  0  0  0
  8 27  1  0  0  0
  9 10  1  0  0  0
  9 28  1  0  0  0
  9 29  1  0  0  0
 10 30  1  0  0  0
M  END
>  <i_m_Spin_multiplicity> (1)
1

>  <s_j_Task> (1)
Single Point

>  <s_j_QM_Method> (1)
DFT(b3lyp-d3)

>  <s_j_QM_Basis> (1)
cc-pvtz(-f)

>  <i_j_Number_of_canonical_orbitals> (1)
408

>  <i_j_Geometry_convergence_category> (1)
0

>  <r_j_Gas_Phase_Energy> (1)
-430.413612257291

>  <r_j_Final_Energy> (1)
-430.413612257291

>  <r_j_HOMO> (1)
-0.282258275447867

>  <r_j_LUMO> (1)
0.0133624849682779

>  <r_j_Polarizability> (1)
115.312143641084

>  <r_j_QM_Dipole_(debye)> (1)
1.40091305343561

>  <r_j_QM_Dipole_X_(debye)> (1)
0.736141613103821

>  <r_j_QM_Dipole_Y_(debye)> (1)
-0.884022026613937

>  <r_j_QM_Dipole_Z_(debye)> (1)
-0.79947355503768

>  <r_j_Lowest_Frequency_(cm-1)> (1)
75.2981521262842

>  <r_j_Highest_Frequency_(cm-1)> (1)
3783.57860561282

>  <r_j_2nd_Lowest_Frequency_(cm-1)> (1)
99.8060699705871

>  <i_j_Num_Negative_Frequencies> (1)
0

>  <r_j_Zero_Point_Energy_(kcal/mol)> (1)
174.668967809075

>  <r_j_Entropy_(cal/mol/K)_298.15K_1.00E+00atm> (1)
106.765376541389

>  <r_j_Enthalpy_(kcal/mol)_298.15K_1.00E+00atm> (1)
8.41835720619703

>  <r_j_Free_Energy_(kcal/mol)_298.15K_1.00E+00atm> (1)
-23.4137398096181

>  <r_j_Internal_Energy_(kcal/mol)_298.15K_1.00E+00atm> (1)
7.82587161736975

>  <r_j_Heat_Capacity_(cal/mol/K)_298.15K_1.00E+00atm> (1)
47.8512253111861

>  <r_j_ln(Q)_298.15K_1.00E+00atm> (1)
39.5178216164913

>  <r_j_Total_Internal_Energy_(au)_298.15K_1.00E+00atm> (1)
-430.122788216936

>  <r_j_Total_Enthalpy_(au)_298.15K_1.00E+00atm> (1)
-430.121844031044

>  <r_j_Total_Free_Energy_(au)_298.15K_1.00E+00atm> (1)
-430.172571706939

>  <r_lp_tautomer_probability> (1)
1

>  <r_epik_Ionization_Penalty> (1)
  0.0000

>  <r_epik_Ionization_Penalty_Charging> (1)
  0.0000

>  <r_epik_Ionization_Penalty_Neutral> (1)
  0.0000

>  <r_epik_State_Penalty> (1)
  0.0000

>  <r_epik_Charging_Adjusted_Penalty> (1)
0

>  <i_epik_Tot_Q> (1)
0

>  <i_epik_Tot_abs_Q> (1)
0

>  <s_lp_Force_Field> (1)
S-OPLS

>  <r_lp_Energy> (1)
6.232571

>  <b_lp_Chiralities_Consistent> (1)
1

$$$$
