51806_3-ethylheptane
                    3D
 Schrodinger Suite 2021-3.
 29 28  0  0  1  0            999 V2000
   -2.6552    2.9377    0.1964 C   0  0  0  0  0  0
   -2.1137    1.5308   -0.0738 C   0  0  0  0  0  0
   -0.5862    1.4450    0.0319 C   0  0  0  0  0  0
   -0.0444    0.0329   -0.2231 C   0  0  0  0  0  0
    1.4914   -0.0964   -0.1442 C   0  0  0  0  0  0
    2.1648    0.5221   -1.3884 C   0  0  0  0  0  0
    3.6621    0.8062   -1.2244 C   0  0  0  0  0  0
    1.9161   -1.5684    0.0442 C   0  0  0  0  0  0
    1.6379   -2.1334    1.4417 C   0  0  0  0  0  0
   -3.7466    2.9724    0.1148 H   0  0  0  0  0  0
   -2.2441    3.6617   -0.5167 H   0  0  0  0  0  0
   -2.3847    3.2774    1.2029 H   0  0  0  0  0  0
   -2.5658    0.8203    0.6318 H   0  0  0  0  0  0
   -2.4246    1.2024   -1.0751 H   0  0  0  0  0  0
   -0.1403    2.1591   -0.6732 H   0  0  0  0  0  0
   -0.2731    1.7743    1.0332 H   0  0  0  0  0  0
   -0.5101   -0.6452    0.5029 H   0  0  0  0  0  0
   -0.3753   -0.3155   -1.2129 H   0  0  0  0  0  0
    1.8337    0.4673    0.7391 H   0  0  0  0  0  0
    2.0041   -0.1504   -2.2433 H   0  0  0  0  0  0
    1.6614    1.4611   -1.6470 H   0  0  0  0  0  0
    4.0820    1.2491   -2.1336 H   0  0  0  0  0  0
    4.2336   -0.1026   -1.0097 H   0  0  0  0  0  0
    3.8373    1.5076   -0.4005 H   0  0  0  0  0  0
    1.4058   -2.1794   -0.7142 H   0  0  0  0  0  0
    2.9883   -1.6691   -0.1610 H   0  0  0  0  0  0
    1.9611   -3.1768    1.5174 H   0  0  0  0  0  0
    0.5733   -2.1017    1.6951 H   0  0  0  0  0  0
    2.1755   -1.5617    2.2070 H   0  0  0  0  0  0
  1  2  1  0  0  0
  1 10  1  0  0  0
  1 11  1  0  0  0
  1 12  1  0  0  0
  2  3  1  0  0  0
  2 13  1  0  0  0
  2 14  1  0  0  0
  3  4  1  0  0  0
  3 15  1  0  0  0
  3 16  1  0  0  0
  4  5  1  0  0  0
  4 17  1  0  0  0
  4 18  1  0  0  0
  5  6  1  0  0  0
  5  8  1  0  0  0
  5 19  1  0  0  0
  6  7  1  0  0  0
  6 20  1  0  0  0
  6 21  1  0  0  0
  7 22  1  0  0  0
  7 23  1  0  0  0
  7 24  1  0  0  0
  8  9  1  0  0  0
  8 25  1  0  0  0
  8 26  1  0  0  0
  9 27  1  0  0  0
  9 28  1  0  0  0
  9 29  1  0  0  0
M  END
>  <i_m_Spin_multiplicity> (1)
1

>  <s_j_Task> (1)
Single Point

>  <s_j_QM_Method> (1)
DFT(b3lyp-d3)

>  <s_j_QM_Basis> (1)
cc-pvtz(-f)

>  <i_j_Number_of_canonical_orbitals> (1)
384

>  <i_j_Geometry_convergence_category> (1)
1

>  <r_j_Gas_Phase_Energy> (1)
-355.16825227066

>  <r_j_Final_Energy> (1)
-355.16825227066

>  <r_j_HOMO> (1)
-0.296957022093354

>  <r_j_LUMO> (1)
0.0274961608694845

>  <r_j_Polarizability> (1)
111.340868417471

>  <r_j_QM_Dipole_(debye)> (1)
0.0527237771074049

>  <r_j_QM_Dipole_X_(debye)> (1)
-0.00889335831581602

>  <r_j_QM_Dipole_Y_(debye)> (1)
-0.024867979398053

>  <r_j_QM_Dipole_Z_(debye)> (1)
-0.0456320989106991

>  <r_j_Lowest_Frequency_(cm-1)> (1)
81.5473315028658

>  <r_j_Highest_Frequency_(cm-1)> (1)
3052.05653965028

>  <r_j_2nd_Lowest_Frequency_(cm-1)> (1)
106.653553186735

>  <i_j_Num_Negative_Frequencies> (1)
0

>  <r_j_Zero_Point_Energy_(kcal/mol)> (1)
171.772950026049

>  <r_j_Entropy_(cal/mol/K)_298.15K_1.00E+00atm> (1)
102.918951741496

>  <r_j_Enthalpy_(kcal/mol)_298.15K_1.00E+00atm> (1)
7.8216033326221

>  <r_j_Free_Energy_(kcal/mol)_298.15K_1.00E+00atm> (1)
-22.863682129105

>  <r_j_Internal_Energy_(kcal/mol)_298.15K_1.00E+00atm> (1)
7.22911774379483

>  <r_j_Heat_Capacity_(cal/mol/K)_298.15K_1.00E+00atm> (1)
43.5344178363979

>  <r_j_ln(Q)_298.15K_1.00E+00atm> (1)
38.5894316423118

>  <r_j_Total_Internal_Energy_(au)_298.15K_1.00E+00atm> (1)
-354.882994316274

>  <r_j_Total_Enthalpy_(au)_298.15K_1.00E+00atm> (1)
-354.882050130382

>  <r_j_Total_Free_Energy_(au)_298.15K_1.00E+00atm> (1)
-354.930950245725

>  <r_lp_tautomer_probability> (1)
1

>  <r_epik_Ionization_Penalty> (1)
  0.0000

>  <r_epik_Ionization_Penalty_Charging> (1)
  0.0000

>  <r_epik_Ionization_Penalty_Neutral> (1)
  0.0000

>  <r_epik_State_Penalty> (1)
  0.0000

>  <r_epik_Charging_Adjusted_Penalty> (1)
0

>  <i_epik_Tot_Q> (1)
0

>  <i_epik_Tot_abs_Q> (1)
0

>  <s_lp_Force_Field> (1)
S-OPLS

>  <r_lp_Energy> (1)
5.998322

>  <b_lp_Chiralities_Consistent> (1)
1

$$$$
