518574_Manoyl oxide
                    3D
 Schrodinger Suite 2021-3.
 55 57  0  0  1  0            999 V2000
   -0.4088    0.0004   -0.1426 C   0  0  0  0  0  0
    1.1070   -0.0882    0.1230 C   0  0  0  0  0  0
    1.9167    0.7903   -0.8711 C   0  0  0  0  0  0
    2.0910    0.1958   -2.2774 C   0  0  0  0  0  0
    2.6496   -1.2404   -2.2565 C   0  0  0  0  0  0
    1.7886   -2.1769   -1.3763 C   0  0  0  0  0  0
    1.7141   -1.5230    0.0452 C   0  0  0  0  0  0
    1.2391   -2.5639    1.0708 C   0  0  0  0  0  0
    2.3439   -3.6256    1.3008 C   0  0  0  0  0  0
    3.2180   -3.9091    0.0450 C   0  0  0  0  0  0
    2.3705   -3.6345   -1.2204 C   0  0  0  0  0  0
    3.0609   -4.2070   -2.4661 C   0  0  0  0  0  0
    3.2347   -5.7201   -2.2878 C   0  0  0  0  0  0
    3.9872   -6.0785   -0.9819 C   0  0  0  0  0  0
    3.4826   -5.3313    0.1318 O   0  0  0  0  0  0
    5.5129   -5.8993   -1.1543 C   0  0  0  0  0  0
    3.7294   -7.5372   -0.6564 C   0  0  0  0  0  0
    3.1521   -8.0035    0.4481 C   0  0  0  0  0  0
    4.5582   -3.1486    0.1253 C   0  0  0  0  0  0
    0.4113   -2.3836   -2.0563 C   0  0  0  0  0  0
    1.3499    0.4838    1.5385 C   0  0  0  0  0  0
   -0.7840    0.9821    0.1676 H   0  0  0  0  0  0
   -0.9526   -0.7568    0.4326 H   0  0  0  0  0  0
   -0.6711   -0.1272   -1.1925 H   0  0  0  0  0  0
    1.4541    1.7835   -0.9395 H   0  0  0  0  0  0
    2.9159    0.9477   -0.4399 H   0  0  0  0  0  0
    1.1328    0.2137   -2.8093 H   0  0  0  0  0  0
    2.7625    0.8391   -2.8589 H   0  0  0  0  0  0
    2.7104   -1.6218   -3.2824 H   0  0  0  0  0  0
    3.6766   -1.2204   -1.8688 H   0  0  0  0  0  0
    2.7580   -1.3232    0.3072 H   0  0  0  0  0  0
    0.9888   -2.0997    2.0283 H   0  0  0  0  0  0
    0.3174   -3.0444    0.7223 H   0  0  0  0  0  0
    2.9951   -3.3122    2.1248 H   0  0  0  0  0  0
    1.8942   -4.5766    1.5982 H   0  0  0  0  0  0
    1.4930   -4.2752   -1.0559 H   0  0  0  0  0  0
    2.4598   -4.0174   -3.3623 H   0  0  0  0  0  0
    4.0260   -3.7178   -2.6402 H   0  0  0  0  0  0
    2.2415   -6.1827   -2.2501 H   0  0  0  0  0  0
    3.7639   -6.1634   -3.1395 H   0  0  0  0  0  0
    5.9124   -6.6789   -1.8109 H   0  0  0  0  0  0
    6.0010   -5.9832   -0.1806 H   0  0  0  0  0  0
    5.7726   -4.9351   -1.5952 H   0  0  0  0  0  0
    4.0661   -8.2276   -1.4299 H   0  0  0  0  0  0
    2.8147   -7.3315    1.2288 H   0  0  0  0  0  0
    3.0063   -9.0691    0.5979 H   0  0  0  0  0  0
    4.4236   -2.1100    0.4306 H   0  0  0  0  0  0
    5.1001   -3.1412   -0.8215 H   0  0  0  0  0  0
    5.1849   -3.6401    0.8740 H   0  0  0  0  0  0
   -0.3250   -2.7949   -1.3597 H   0  0  0  0  0  0
    0.5098   -3.0935   -2.8844 H   0  0  0  0  0  0
   -0.0076   -1.4707   -2.4767 H   0  0  0  0  0  0
    2.3879    0.3387    1.8593 H   0  0  0  0  0  0
    0.6985    0.0213    2.2863 H   0  0  0  0  0  0
    1.1442    1.5601    1.5500 H   0  0  0  0  0  0
  1  2  1  0  0  0
  1 22  1  0  0  0
  1 23  1  0  0  0
  1 24  1  0  0  0
  2  7  1  0  0  0
  2  3  1  0  0  0
  2 21  1  0  0  0
  3  4  1  0  0  0
  3 25  1  0  0  0
  3 26  1  0  0  0
  4  5  1  0  0  0
  4 27  1  0  0  0
  4 28  1  0  0  0
  5  6  1  0  0  0
  5 29  1  0  0  0
  5 30  1  0  0  0
  6 11  1  0  0  0
  6  7  1  0  0  0
  6 20  1  0  0  0
  7  8  1  0  0  0
  7 31  1  0  0  0
  8  9  1  0  0  0
  8 32  1  0  0  0
  8 33  1  0  0  0
  9 10  1  0  0  0
  9 34  1  0  0  0
  9 35  1  0  0  0
 10 15  1  0  0  0
 10 11  1  0  0  0
 10 19  1  0  0  0
 11 12  1  0  0  0
 11 36  1  0  0  0
 12 13  1  0  0  0
 12 37  1  0  0  0
 12 38  1  0  0  0
 13 14  1  0  0  0
 13 39  1  0  0  0
 13 40  1  0  0  0
 14 15  1  0  0  0
 14 16  1  0  0  0
 14 17  1  0  0  0
 16 41  1  0  0  0
 16 42  1  0  0  0
 16 43  1  0  0  0
 17 18  2  0  0  0
 17 44  1  0  0  0
 18 45  1  0  0  0
 18 46  1  0  0  0
 19 47  1  0  0  0
 19 48  1  0  0  0
 19 49  1  0  0  0
 20 50  1  0  0  0
 20 51  1  0  0  0
 20 52  1  0  0  0
 21 53  1  0  0  0
 21 54  1  0  0  0
 21 55  1  0  0  0
M  END
>  <i_m_Spin_multiplicity> (1)
1

>  <s_j_Task> (1)
Single Point

>  <s_j_QM_Method> (1)
DFT(b3lyp-d3)

>  <s_j_QM_Basis> (1)
cc-pvtz(-f)

>  <i_j_Number_of_canonical_orbitals> (1)
776

>  <i_j_Geometry_convergence_category> (1)
3

>  <r_j_Gas_Phase_Energy> (1)
-858.147418242263

>  <r_j_Final_Energy> (1)
-858.147418242263

>  <r_j_HOMO> (1)
-0.269914810749779

>  <r_j_LUMO> (1)
-0.0214038499653526

>  <r_j_Polarizability> (1)
226.580601097136

>  <r_j_QM_Dipole_(debye)> (1)
1.54865791304766

>  <r_j_QM_Dipole_X_(debye)> (1)
0.0771095986492396

>  <r_j_QM_Dipole_Y_(debye)> (1)
1.04417512518097

>  <r_j_QM_Dipole_Z_(debye)> (1)
-1.14109322554934

>  <r_j_Lowest_Frequency_(cm-1)> (1)
69.720906475818

>  <r_j_Highest_Frequency_(cm-1)> (1)
3193.99467177824

>  <r_j_2nd_Lowest_Frequency_(cm-1)> (1)
86.7353095774201

>  <i_j_Num_Negative_Frequencies> (1)
0

>  <r_j_Zero_Point_Energy_(kcal/mol)> (1)
316.774480472233

>  <r_j_Entropy_(cal/mol/K)_298.15K_1.00E+00atm> (1)
136.313613454708

>  <r_j_Enthalpy_(kcal/mol)_298.15K_1.00E+00atm> (1)
13.1614711486357

>  <r_j_Free_Energy_(kcal/mol)_298.15K_1.00E+00atm> (1)
-27.4804327028856

>  <r_j_Internal_Energy_(kcal/mol)_298.15K_1.00E+00atm> (1)
12.5689855598084

>  <r_j_Heat_Capacity_(cal/mol/K)_298.15K_1.00E+00atm> (1)
87.5588517972539

>  <r_j_ln(Q)_298.15K_1.00E+00atm> (1)
46.3816052594267

>  <r_j_Total_Internal_Energy_(au)_298.15K_1.00E+00atm> (1)
-857.622576017919

>  <r_j_Total_Enthalpy_(au)_298.15K_1.00E+00atm> (1)
-857.621631832026

>  <r_j_Total_Free_Energy_(au)_298.15K_1.00E+00atm> (1)
-857.686398828852

>  <r_lp_tautomer_probability> (1)
1

>  <r_epik_Ionization_Penalty> (1)
  0.0000

>  <r_epik_Ionization_Penalty_Charging> (1)
  0.0000

>  <r_epik_Ionization_Penalty_Neutral> (1)
  0.0000

>  <r_epik_State_Penalty> (1)
  0.0000

>  <r_epik_Charging_Adjusted_Penalty> (1)
0

>  <i_epik_Tot_Q> (1)
0

>  <i_epik_Tot_abs_Q> (1)
0

>  <s_lp_Force_Field> (1)
S-OPLS

>  <r_lp_Energy> (1)
59.0076

>  <b_lp_Chiralities_Consistent> (1)
1

$$$$
