519195_1-Methyl-4-isobutylbenzene
                    3D
 Schrodinger Suite 2021-3.
 27 27  0  0  1  0            999 V2000
   -0.6347    1.4207   -0.1016 C   0  0  0  0  0  0
   -0.0518    0.0062   -0.0524 C   0  0  0  0  0  0
    1.4905   -0.0261    0.0289 C   0  0  0  0  0  0
    2.0144   -1.4714   -0.0472 C   0  0  0  0  0  0
    2.0127    0.6909    1.2657 C   0  0  0  0  0  0
    2.8162    1.8318    1.1552 C   0  0  0  0  0  0
    3.2932    2.4940    2.2849 C   0  0  0  0  0  0
    2.9828    2.0409    3.5727 C   0  0  0  0  0  0
    2.1782    0.9016    3.6850 C   0  0  0  0  0  0
    1.7023    0.2392    2.5542 C   0  0  0  0  0  0
    3.5039    2.7657    4.7918 C   0  0  0  0  0  0
   -1.7262    1.3975   -0.1811 H   0  0  0  0  0  0
   -0.2479    1.9745   -0.9650 H   0  0  0  0  0  0
   -0.3715    1.9860    0.7977 H   0  0  0  0  0  0
   -0.4667   -0.5358    0.8079 H   0  0  0  0  0  0
   -0.3635   -0.5540   -0.9437 H   0  0  0  0  0  0
    1.8733    0.5141   -0.8485 H   0  0  0  0  0  0
    3.1078   -1.4963   -0.0169 H   0  0  0  0  0  0
    1.6846   -1.9576   -0.9719 H   0  0  0  0  0  0
    1.6447   -2.0691    0.7933 H   0  0  0  0  0  0
    3.0708    2.2085    0.1673 H   0  0  0  0  0  0
    3.9155    3.3781    2.1648 H   0  0  0  0  0  0
    1.9191    0.5269    4.6725 H   0  0  0  0  0  0
    1.0781   -0.6417    2.6805 H   0  0  0  0  0  0
    3.1634    2.2930    5.7175 H   0  0  0  0  0  0
    3.1694    3.8095    4.8069 H   0  0  0  0  0  0
    4.5999    2.7800    4.8076 H   0  0  0  0  0  0
  1  2  1  0  0  0
  1 12  1  0  0  0
  1 13  1  0  0  0
  1 14  1  0  0  0
  2  3  1  0  0  0
  2 15  1  0  0  0
  2 16  1  0  0  0
  3  4  1  0  0  0
  3  5  1  0  0  0
  3 17  1  0  0  0
  4 18  1  0  0  0
  4 19  1  0  0  0
  4 20  1  0  0  0
  5 10  1  0  0  0
  5  6  2  0  0  0
  6  7  1  0  0  0
  6 21  1  0  0  0
  7  8  2  0  0  0
  7 22  1  0  0  0
  8  9  1  0  0  0
  8 11  1  0  0  0
  9 10  2  0  0  0
  9 23  1  0  0  0
 10 24  1  0  0  0
 11 25  1  0  0  0
 11 26  1  0  0  0
 11 27  1  0  0  0
M  END
>  <i_m_Spin_multiplicity> (1)
1

>  <s_j_Task> (1)
Single Point

>  <s_j_QM_Method> (1)
DFT(b3lyp-d3)

>  <s_j_QM_Basis> (1)
cc-pvtz(-f)

>  <i_j_Number_of_canonical_orbitals> (1)
389

>  <i_j_Geometry_convergence_category> (1)
3

>  <r_j_Gas_Phase_Energy> (1)
-428.984372564722

>  <r_j_Final_Energy> (1)
-428.984372564722

>  <r_j_HOMO> (1)
-0.240697588726524

>  <r_j_LUMO> (1)
-0.0180036902099377

>  <r_j_Polarizability> (1)
127.703223261791

>  <r_j_QM_Dipole_(debye)> (1)
0.101552683243531

>  <r_j_QM_Dipole_X_(debye)> (1)
0.0359592823934841

>  <r_j_QM_Dipole_Y_(debye)> (1)
0.0686810813242169

>  <r_j_QM_Dipole_Z_(debye)> (1)
0.0655956290605016

>  <r_j_Lowest_Frequency_(cm-1)> (1)
73.035193374948

>  <r_j_Highest_Frequency_(cm-1)> (1)
3128.33292000305

>  <r_j_2nd_Lowest_Frequency_(cm-1)> (1)
85.938312216185

>  <i_j_Num_Negative_Frequencies> (1)
0

>  <r_j_Zero_Point_Energy_(kcal/mol)> (1)
150.759742421252

>  <r_j_Entropy_(cal/mol/K)_298.15K_1.00E+00atm> (1)
100.544493202641

>  <r_j_Enthalpy_(kcal/mol)_298.15K_1.00E+00atm> (1)
7.49712174023295

>  <r_j_Free_Energy_(kcal/mol)_298.15K_1.00E+00atm> (1)
-22.4802189081344

>  <r_j_Internal_Energy_(kcal/mol)_298.15K_1.00E+00atm> (1)
6.90463615140568

>  <r_j_Heat_Capacity_(cal/mol/K)_298.15K_1.00E+00atm> (1)
43.4963231014118

>  <r_j_ln(Q)_298.15K_1.00E+00atm> (1)
37.9422205907661

>  <r_j_Total_Internal_Energy_(au)_298.15K_1.00E+00atm> (1)
-428.733118382737

>  <r_j_Total_Enthalpy_(au)_298.15K_1.00E+00atm> (1)
-428.732174196845

>  <r_j_Total_Free_Energy_(au)_298.15K_1.00E+00atm> (1)
-428.779946130308

>  <r_lp_tautomer_probability> (1)
1

>  <r_epik_Ionization_Penalty> (1)
  0.0000

>  <r_epik_Ionization_Penalty_Charging> (1)
  0.0000

>  <r_epik_Ionization_Penalty_Neutral> (1)
  0.0000

>  <r_epik_State_Penalty> (1)
  0.0000

>  <r_epik_Charging_Adjusted_Penalty> (1)
0

>  <i_epik_Tot_Q> (1)
0

>  <i_epik_Tot_abs_Q> (1)
0

>  <s_lp_Force_Field> (1)
S-OPLS

>  <r_lp_Energy> (1)
8.62383

>  <b_lp_Chiralities_Consistent> (1)
1

$$$$
