519284_Isopropylmethylcyclohexane
                    3D
 Schrodinger Suite 2021-3.
 30 30  0  0  1  0            999 V2000
   -0.6041   -0.8576    1.2189 C   0  0  0  0  0  0
   -0.0286   -0.0582    0.0348 C   0  0  0  0  0  0
   -0.7036   -0.5527   -1.2582 C   0  0  0  0  0  0
    1.5405   -0.0339   -0.0370 C   0  0  0  0  0  0
    2.1341   -1.4670   -0.0280 C   0  0  0  0  0  0
    3.6687   -1.4963    0.0704 C   0  0  0  0  0  0
    4.1561   -0.7348    1.3116 C   0  0  0  0  0  0
    3.6275    0.7069    1.3191 C   0  0  0  0  0  0
    2.0949    0.7426    1.1905 C   0  0  0  0  0  0
    1.9641    0.7067   -1.3252 C   0  0  0  0  0  0
   -0.4763   -1.9356    1.0736 H   0  0  0  0  0  0
   -1.6793   -0.6702    1.3072 H   0  0  0  0  0  0
   -0.1480   -0.5935    2.1764 H   0  0  0  0  0  0
   -0.3299    0.9915    0.1748 H   0  0  0  0  0  0
   -0.3888   -1.5721   -1.5085 H   0  0  0  0  0  0
   -0.4874    0.0866   -2.1172 H   0  0  0  0  0  0
   -1.7913   -0.5720   -1.1317 H   0  0  0  0  0  0
    1.7348   -2.0143    0.8348 H   0  0  0  0  0  0
    1.8069   -2.0124   -0.9214 H   0  0  0  0  0  0
    4.0135   -2.5368    0.1042 H   0  0  0  0  0  0
    4.1152   -1.0548   -0.8298 H   0  0  0  0  0  0
    3.7959   -1.2538    2.2119 H   0  0  0  0  0  0
    5.2515   -0.7418    1.3627 H   0  0  0  0  0  0
    3.9266    1.2167    2.2430 H   0  0  0  0  0  0
    4.0929    1.2682    0.4991 H   0  0  0  0  0  0
    1.7444    1.7824    1.1478 H   0  0  0  0  0  0
    1.6762    0.3136    2.1084 H   0  0  0  0  0  0
    3.0334    0.9280   -1.3399 H   0  0  0  0  0  0
    1.4325    1.6614   -1.4138 H   0  0  0  0  0  0
    1.7479    0.1163   -2.2202 H   0  0  0  0  0  0
  1  2  1  0  0  0
  1 11  1  0  0  0
  1 12  1  0  0  0
  1 13  1  0  0  0
  2  3  1  0  0  0
  2  4  1  0  0  0
  2 14  1  0  0  0
  3 15  1  0  0  0
  3 16  1  0  0  0
  3 17  1  0  0  0
  4  9  1  0  0  0
  4  5  1  0  0  0
  4 10  1  0  0  0
  5  6  1  0  0  0
  5 18  1  0  0  0
  5 19  1  0  0  0
  6  7  1  0  0  0
  6 20  1  0  0  0
  6 21  1  0  0  0
  7  8  1  0  0  0
  7 22  1  0  0  0
  7 23  1  0  0  0
  8  9  1  0  0  0
  8 24  1  0  0  0
  8 25  1  0  0  0
  9 26  1  0  0  0
  9 27  1  0  0  0
 10 28  1  0  0  0
 10 29  1  0  0  0
 10 30  1  0  0  0
M  END
>  <i_m_Spin_multiplicity> (1)
1

>  <s_j_Task> (1)
Single Point

>  <s_j_QM_Method> (1)
DFT(b3lyp-d3)

>  <s_j_QM_Basis> (1)
cc-pvtz(-f)

>  <i_j_Number_of_canonical_orbitals> (1)
405

>  <i_j_Geometry_convergence_category> (1)
1

>  <r_j_Gas_Phase_Energy> (1)
-393.286348540872

>  <r_j_Final_Energy> (1)
-393.286348540872

>  <r_j_HOMO> (1)
-0.29197299099014

>  <r_j_LUMO> (1)
0.0225339948618067

>  <r_j_Polarizability> (1)
115.668030059122

>  <r_j_QM_Dipole_(debye)> (1)
0.0800550033585732

>  <r_j_QM_Dipole_X_(debye)> (1)
0.0438929655200411

>  <r_j_QM_Dipole_Y_(debye)> (1)
0.0385992920275764

>  <r_j_QM_Dipole_Z_(debye)> (1)
0.0547019725016158

>  <r_j_Lowest_Frequency_(cm-1)> (1)
104.844521286161

>  <r_j_Highest_Frequency_(cm-1)> (1)
3073.19157071107

>  <r_j_2nd_Lowest_Frequency_(cm-1)> (1)
148.432599618132

>  <i_j_Num_Negative_Frequencies> (1)
0

>  <r_j_Zero_Point_Energy_(kcal/mol)> (1)
177.247306711163

>  <r_j_Entropy_(cal/mol/K)_298.15K_1.00E+00atm> (1)
95.9966816810125

>  <r_j_Enthalpy_(kcal/mol)_298.15K_1.00E+00atm> (1)
7.13283785803423

>  <r_j_Free_Energy_(kcal/mol)_298.15K_1.00E+00atm> (1)
-21.4885727851596

>  <r_j_Internal_Energy_(kcal/mol)_298.15K_1.00E+00atm> (1)
6.54035226920695

>  <r_j_Heat_Capacity_(cal/mol/K)_298.15K_1.00E+00atm> (1)
43.6464654786176

>  <r_j_ln(Q)_298.15K_1.00E+00atm> (1)
36.2685155392432

>  <r_j_Total_Internal_Energy_(au)_298.15K_1.00E+00atm> (1)
-392.993464261404

>  <r_j_Total_Enthalpy_(au)_298.15K_1.00E+00atm> (1)
-392.992520075512

>  <r_j_Total_Free_Energy_(au)_298.15K_1.00E+00atm> (1)
-393.038131196955

>  <r_lp_tautomer_probability> (1)
1

>  <r_epik_Ionization_Penalty> (1)
  0.0000

>  <r_epik_Ionization_Penalty_Charging> (1)
  0.0000

>  <r_epik_Ionization_Penalty_Neutral> (1)
  0.0000

>  <r_epik_State_Penalty> (1)
  0.0000

>  <r_epik_Charging_Adjusted_Penalty> (1)
0

>  <i_epik_Tot_Q> (1)
0

>  <i_epik_Tot_abs_Q> (1)
0

>  <s_lp_Force_Field> (1)
S-OPLS

>  <r_lp_Energy> (1)
20.5155

>  <b_lp_Chiralities_Consistent> (1)
1

$$$$
