519256_4-ethyldecane
                    3D
 Schrodinger Suite 2021-3.
 38 37  0  0  1  0            999 V2000
   -4.7298    4.3724    0.2623 C   0  0  0  0  0  0
   -4.1696    2.9822   -0.0529 C   0  0  0  0  0  0
   -2.6468    2.8973    0.1050 C   0  0  0  0  0  0
   -2.0806    1.5063   -0.2005 C   0  0  0  0  0  0
   -0.5580    1.4165   -0.0465 C   0  0  0  0  0  0
   -0.0099    0.0102   -0.3198 C   0  0  0  0  0  0
    1.5243   -0.1194   -0.2067 C   0  0  0  0  0  0
    2.2228    0.4998   -1.4362 C   0  0  0  0  0  0
    3.7149    0.7880   -1.2393 C   0  0  0  0  0  0
    1.9431   -1.5911   -0.0069 C   0  0  0  0  0  0
    1.6752   -2.1466    1.3981 C   0  0  0  0  0  0
    2.0731   -3.6190    1.5388 C   0  0  0  0  0  0
   -5.8175    4.4060    0.1407 H   0  0  0  0  0  0
   -4.2963    5.1313   -0.3994 H   0  0  0  0  0  0
   -4.5000    4.6650    1.2933 H   0  0  0  0  0  0
   -4.6421    2.2378    0.6024 H   0  0  0  0  0  0
   -4.4423    2.6990   -1.0788 H   0  0  0  0  0  0
   -2.1716    3.6380   -0.5544 H   0  0  0  0  0  0
   -2.3717    3.1854    1.1299 H   0  0  0  0  0  0
   -2.5565    0.7682    0.4612 H   0  0  0  0  0  0
   -2.3589    1.2171   -1.2241 H   0  0  0  0  0  0
   -0.0868    2.1469   -0.7176 H   0  0  0  0  0  0
   -0.2768    1.7180    0.9727 H   0  0  0  0  0  0
   -0.4925   -0.6842    0.3792 H   0  0  0  0  0  0
   -0.3165   -0.3167   -1.3246 H   0  0  0  0  0  0
    1.8473    0.4463    0.6822 H   0  0  0  0  0  0
    2.0824   -0.1736   -2.2938 H   0  0  0  0  0  0
    1.7217    1.4373   -1.7056 H   0  0  0  0  0  0
    4.1543    1.2290   -2.1401 H   0  0  0  0  0  0
    4.2830   -0.1191   -1.0086 H   0  0  0  0  0  0
    3.8698    1.4923   -0.4138 H   0  0  0  0  0  0
    1.4226   -2.2097   -0.7534 H   0  0  0  0  0  0
    3.0138   -1.7054   -0.2187 H   0  0  0  0  0  0
    2.2291   -1.5434    2.1303 H   0  0  0  0  0  0
    0.6143   -2.0331    1.6540 H   0  0  0  0  0  0
    1.8864   -3.9921    2.5512 H   0  0  0  0  0  0
    3.1378   -3.7627    1.3210 H   0  0  0  0  0  0
    1.5073   -4.2477    0.8416 H   0  0  0  0  0  0
  1  2  1  0  0  0
  1 13  1  0  0  0
  1 14  1  0  0  0
  1 15  1  0  0  0
  2  3  1  0  0  0
  2 16  1  0  0  0
  2 17  1  0  0  0
  3  4  1  0  0  0
  3 18  1  0  0  0
  3 19  1  0  0  0
  4  5  1  0  0  0
  4 20  1  0  0  0
  4 21  1  0  0  0
  5  6  1  0  0  0
  5 22  1  0  0  0
  5 23  1  0  0  0
  6  7  1  0  0  0
  6 24  1  0  0  0
  6 25  1  0  0  0
  7  8  1  0  0  0
  7 10  1  0  0  0
  7 26  1  0  0  0
  8  9  1  0  0  0
  8 27  1  0  0  0
  8 28  1  0  0  0
  9 29  1  0  0  0
  9 30  1  0  0  0
  9 31  1  0  0  0
 10 11  1  0  0  0
 10 32  1  0  0  0
 10 33  1  0  0  0
 11 12  1  0  0  0
 11 34  1  0  0  0
 11 35  1  0  0  0
 12 36  1  0  0  0
 12 37  1  0  0  0
 12 38  1  0  0  0
M  END
>  <i_m_Spin_multiplicity> (1)
1

>  <s_j_Task> (1)
Single Point

>  <s_j_QM_Method> (1)
DFT(b3lyp-d3)

>  <s_j_QM_Basis> (1)
cc-pvtz(-f)

>  <i_j_Number_of_canonical_orbitals> (1)
506

>  <i_j_Geometry_convergence_category> (1)
1

>  <r_j_Gas_Phase_Energy> (1)
-473.156723282887

>  <r_j_Final_Energy> (1)
-473.156723282887

>  <r_j_HOMO> (1)
-0.289691134088685

>  <r_j_LUMO> (1)
0.0190339913733779

>  <r_j_Polarizability> (1)
149.000356479924

>  <r_j_QM_Dipole_(debye)> (1)
0.0557280411041255

>  <r_j_QM_Dipole_X_(debye)> (1)
-0.0485049147487734

>  <r_j_QM_Dipole_Y_(debye)> (1)
0.0255074329346899

>  <r_j_QM_Dipole_Z_(debye)> (1)
0.0101123031797715

>  <r_j_Lowest_Frequency_(cm-1)> (1)
51.4027614023337

>  <r_j_Highest_Frequency_(cm-1)> (1)
3049.83579249624

>  <r_j_2nd_Lowest_Frequency_(cm-1)> (1)
74.8212307933101

>  <i_j_Num_Negative_Frequencies> (1)
0

>  <r_j_Zero_Point_Energy_(kcal/mol)> (1)
225.368140720131

>  <r_j_Entropy_(cal/mol/K)_298.15K_1.00E+00atm> (1)
120.74057318519

>  <r_j_Enthalpy_(kcal/mol)_298.15K_1.00E+00atm> (1)
10.1334041033102

>  <r_j_Free_Energy_(kcal/mol)_298.15K_1.00E+00atm> (1)
-25.8653977918543

>  <r_j_Internal_Energy_(kcal/mol)_298.15K_1.00E+00atm> (1)
9.54091851448288

>  <r_j_Heat_Capacity_(cal/mol/K)_298.15K_1.00E+00atm> (1)
57.7744429193546

>  <r_j_ln(Q)_298.15K_1.00E+00atm> (1)
43.6557416409916

>  <r_j_Total_Internal_Energy_(au)_298.15K_1.00E+00atm> (1)
-472.782371865952

>  <r_j_Total_Enthalpy_(au)_298.15K_1.00E+00atm> (1)
-472.781427680059

>  <r_j_Total_Free_Energy_(au)_298.15K_1.00E+00atm> (1)
-472.838795422884

>  <r_lp_tautomer_probability> (1)
1

>  <r_epik_Ionization_Penalty> (1)
  0.0000

>  <r_epik_Ionization_Penalty_Charging> (1)
  0.0000

>  <r_epik_Ionization_Penalty_Neutral> (1)
  0.0000

>  <r_epik_State_Penalty> (1)
  0.0000

>  <r_epik_Charging_Adjusted_Penalty> (1)
0

>  <i_epik_Tot_Q> (1)
0

>  <i_epik_Tot_abs_Q> (1)
0

>  <s_lp_Force_Field> (1)
S-OPLS

>  <r_lp_Energy> (1)
7.533996

>  <b_lp_Chiralities_Consistent> (1)
1

$$$$
