5192_Decanedioic acid
                    3D
 Schrodinger Suite 2021-3.
 30 29  0  0  1  0            999 V2000
   -0.1555   -0.0376   -0.2204 C   0  0  0  0  0  0
    1.3783   -0.1177   -0.2393 C   0  0  0  0  0  0
    1.9571   -1.5381   -0.1792 C   0  0  0  0  0  0
    3.4881   -1.5653   -0.0775 C   0  0  0  0  0  0
    4.0752   -2.9764    0.0363 C   0  0  0  0  0  0
    4.0150   -3.8497   -1.2752 C   0  0  0  0  0  0
    4.4277   -5.0281   -1.1314 O   0  0  0  0  0  0
    3.5865   -3.2741   -2.3104 O   0  5  0  0  0  0
   -0.6957    1.4009   -0.2247 C   0  0  0  0  0  0
   -2.2234    1.5214   -0.1279 C   0  0  0  0  0  0
   -2.7407    2.9627   -0.1179 C   0  0  0  0  0  0
   -4.2742    3.1214    0.2168 C   0  0  0  0  0  0
   -4.7849    2.1976    0.9029 O   0  0  0  0  0  0
   -4.8020    4.1803   -0.2109 O   0  5  0  0  0  0
   -0.5620   -0.5865   -1.0823 H   0  0  0  0  0  0
   -0.5339   -0.5595    0.6713 H   0  0  0  0  0  0
    1.7557    0.3870   -1.1414 H   0  0  0  0  0  0
    1.7678    0.4654    0.6110 H   0  0  0  0  0  0
    1.5257   -2.0637    0.6882 H   0  0  0  0  0  0
    1.6802   -2.1098   -1.0718 H   0  0  0  0  0  0
    3.9008   -1.1034   -0.9831 H   0  0  0  0  0  0
    3.7999   -0.9469    0.7826 H   0  0  0  0  0  0
    5.1345   -2.9206    0.3304 H   0  0  0  0  0  0
    3.5798   -3.5394    0.8415 H   0  0  0  0  0  0
   -0.2420    1.9508    0.6154 H   0  0  0  0  0  0
   -0.3417    1.9124   -1.1338 H   0  0  0  0  0  0
   -2.6857    0.9734   -0.9627 H   0  0  0  0  0  0
   -2.5951    1.0339    0.7812 H   0  0  0  0  0  0
   -2.1855    3.5363    0.6438 H   0  0  0  0  0  0
   -2.5377    3.4647   -1.0738 H   0  0  0  0  0  0
  1  2  1  0  0  0
  1  9  1  0  0  0
  1 15  1  0  0  0
  1 16  1  0  0  0
  2  3  1  0  0  0
  2 17  1  0  0  0
  2 18  1  0  0  0
  3  4  1  0  0  0
  3 19  1  0  0  0
  3 20  1  0  0  0
  4  5  1  0  0  0
  4 21  1  0  0  0
  4 22  1  0  0  0
  5  6  1  0  0  0
  5 23  1  0  0  0
  5 24  1  0  0  0
  6  7  2  0  0  0
  6  8  1  0  0  0
  9 10  1  0  0  0
  9 25  1  0  0  0
  9 26  1  0  0  0
 10 11  1  0  0  0
 10 27  1  0  0  0
 10 28  1  0  0  0
 11 12  1  0  0  0
 11 29  1  0  0  0
 11 30  1  0  0  0
 12 13  2  0  0  0
 12 14  1  0  0  0
M  END
>  <i_m_Spin_multiplicity> (1)
1

>  <s_j_Task> (1)
Single Point

>  <s_j_QM_Method> (1)
DFT(b3lyp-d3)

>  <s_j_QM_Basis> (1)
cc-pvtz(-f)

>  <i_j_Number_of_canonical_orbitals> (1)
463

>  <i_j_Geometry_convergence_category> (1)
1

>  <r_j_Gas_Phase_Energy> (1)
-691.93681954788

>  <r_j_Final_Energy> (1)
-691.93681954788

>  <r_j_HOMO> (1)
0.041427755343978

>  <r_j_LUMO> (1)
0.217076371073013

>  <r_j_Polarizability> (1)
142.164539191522

>  <r_j_QM_Dipole_(debye)> (1)
6.1590294567798

>  <r_j_QM_Dipole_X_(debye)> (1)
5.3417904181219

>  <r_j_QM_Dipole_Y_(debye)> (1)
1.79637490312728

>  <r_j_QM_Dipole_Z_(debye)> (1)
2.48434220383521

>  <r_j_Lowest_Frequency_(cm-1)> (1)
46.0151649769233

>  <r_j_Highest_Frequency_(cm-1)> (1)
3031.32388608169

>  <r_j_2nd_Lowest_Frequency_(cm-1)> (1)
57.1814196813942

>  <i_j_Num_Negative_Frequencies> (1)
0

>  <r_j_Zero_Point_Energy_(kcal/mol)> (1)
156.151688133447

>  <r_j_Entropy_(cal/mol/K)_298.15K_1.00E+00atm> (1)
121.696277608684

>  <r_j_Enthalpy_(kcal/mol)_298.15K_1.00E+00atm> (1)
9.85069967318425

>  <r_j_Free_Energy_(kcal/mol)_298.15K_1.00E+00atm> (1)
-26.4330454958449

>  <r_j_Internal_Energy_(kcal/mol)_298.15K_1.00E+00atm> (1)
9.25821408435698

>  <r_j_Heat_Capacity_(cal/mol/K)_298.15K_1.00E+00atm> (1)
54.0914441205799

>  <r_j_ln(Q)_298.15K_1.00E+00atm> (1)
44.6138201406125

>  <r_j_Total_Internal_Energy_(au)_298.15K_1.00E+00atm> (1)
-691.673222088199

>  <r_j_Total_Enthalpy_(au)_298.15K_1.00E+00atm> (1)
-691.672277902307

>  <r_j_Total_Free_Energy_(au)_298.15K_1.00E+00atm> (1)
-691.730099731146

>  <r_epik_Ionization_Penalty> (1)
  0.0097

>  <r_epik_Ionization_Penalty_Charging> (1)
  0.0097

>  <r_epik_Ionization_Penalty_Neutral> (1)
  0.0000

>  <r_epik_State_Penalty> (1)
  0.0074

>  <r_epik_Charging_Adjusted_Penalty> (1)
0.0170603881542268

>  <i_epik_Tot_Q> (1)
-2

>  <i_epik_Tot_abs_Q> (1)
2

>  <s_lp_Force_Field> (1)
S-OPLS

>  <r_lp_Energy> (1)
8.453861

>  <b_lp_Chiralities_Consistent> (1)
1

$$$$
