519397_Undecane, 3-ethyl
                    3D
 Schrodinger Suite 2021-3.
 41 40  0  0  1  0            999 V2000
   -4.8114    4.3777    0.0492 C   0  0  0  0  0  0
   -4.2325    2.9600    0.0777 C   0  0  0  0  0  0
   -2.7009    2.9344    0.0127 C   0  0  0  0  0  0
   -2.1150    1.5184    0.0362 C   0  0  0  0  0  0
   -0.5842    1.4870   -0.0344 C   0  0  0  0  0  0
   -0.0060    0.0676   -0.0242 C   0  0  0  0  0  0
    1.5248    0.0300   -0.1044 C   0  0  0  0  0  0
    2.0812   -1.4002   -0.1286 C   0  0  0  0  0  0
    3.6180   -1.5214   -0.0614 C   0  0  0  0  0  0
    4.2889   -0.8351   -1.2706 C   0  0  0  0  0  0
    5.8208   -0.7809   -1.2219 C   0  0  0  0  0  0
    4.0581   -2.9960    0.0604 C   0  0  0  0  0  0
    3.5614   -3.7231    1.3160 C   0  0  0  0  0  0
   -5.9054    4.3678    0.0966 H   0  0  0  0  0  0
   -4.5218    4.9029   -0.8684 H   0  0  0  0  0  0
   -4.4459    4.9698    0.8963 H   0  0  0  0  0  0
   -4.5638    2.4452    0.9900 H   0  0  0  0  0  0
   -4.6388    2.3796   -0.7621 H   0  0  0  0  0  0
   -2.3680    3.4512   -0.8991 H   0  0  0  0  0  0
   -2.2920    3.5128    0.8538 H   0  0  0  0  0  0
   -2.4472    1.0028    0.9488 H   0  0  0  0  0  0
   -2.5280    0.9414   -0.8037 H   0  0  0  0  0  0
   -0.2518    2.0080   -0.9438 H   0  0  0  0  0  0
   -0.1682    2.0564    0.8092 H   0  0  0  0  0  0
   -0.3370   -0.4538    0.8855 H   0  0  0  0  0  0
   -0.4261   -0.5003   -0.8669 H   0  0  0  0  0  0
    1.8431    0.5807   -0.9983 H   0  0  0  0  0  0
    1.9485    0.5711    0.7541 H   0  0  0  0  0  0
    1.6425   -1.9431    0.7172 H   0  0  0  0  0  0
    1.7243   -1.9137   -1.0342 H   0  0  0  0  0  0
    3.9557   -0.9974    0.8484 H   0  0  0  0  0  0
    3.9660   -1.3455   -2.1898 H   0  0  0  0  0  0
    3.9157    0.1918   -1.3487 H   0  0  0  0  0  0
    6.2150   -0.1805   -2.0482 H   0  0  0  0  0  0
    6.2758   -1.7731   -1.2957 H   0  0  0  0  0  0
    6.1670   -0.3259   -0.2863 H   0  0  0  0  0  0
    3.7258   -3.5387   -0.8366 H   0  0  0  0  0  0
    5.1527   -3.0424    0.0532 H   0  0  0  0  0  0
    4.0081   -4.7200    1.3903 H   0  0  0  0  0  0
    2.4751   -3.8531    1.3202 H   0  0  0  0  0  0
    3.8327   -3.1694    2.2225 H   0  0  0  0  0  0
  1  2  1  0  0  0
  1 14  1  0  0  0
  1 15  1  0  0  0
  1 16  1  0  0  0
  2  3  1  0  0  0
  2 17  1  0  0  0
  2 18  1  0  0  0
  3  4  1  0  0  0
  3 19  1  0  0  0
  3 20  1  0  0  0
  4  5  1  0  0  0
  4 21  1  0  0  0
  4 22  1  0  0  0
  5  6  1  0  0  0
  5 23  1  0  0  0
  5 24  1  0  0  0
  6  7  1  0  0  0
  6 25  1  0  0  0
  6 26  1  0  0  0
  7  8  1  0  0  0
  7 27  1  0  0  0
  7 28  1  0  0  0
  8  9  1  0  0  0
  8 29  1  0  0  0
  8 30  1  0  0  0
  9 10  1  0  0  0
  9 12  1  0  0  0
  9 31  1  0  0  0
 10 11  1  0  0  0
 10 32  1  0  0  0
 10 33  1  0  0  0
 11 34  1  0  0  0
 11 35  1  0  0  0
 11 36  1  0  0  0
 12 13  1  0  0  0
 12 37  1  0  0  0
 12 38  1  0  0  0
 13 39  1  0  0  0
 13 40  1  0  0  0
 13 41  1  0  0  0
M  END
>  <i_m_Spin_multiplicity> (1)
1

>  <s_j_Task> (1)
Single Point

>  <s_j_QM_Method> (1)
DFT(b3lyp-d3)

>  <s_j_QM_Basis> (1)
cc-pvtz(-f)

>  <i_j_Number_of_canonical_orbitals> (1)
547

>  <i_j_Geometry_convergence_category> (1)
0

>  <r_j_Gas_Phase_Energy> (1)
-512.485771330053

>  <r_j_Final_Energy> (1)
-512.485771330053

>  <r_j_HOMO> (1)
-0.289997524073382

>  <r_j_LUMO> (1)
0.0200624442673067

>  <r_j_Polarizability> (1)
161.876231400157

>  <r_j_QM_Dipole_(debye)> (1)
0.0202113920124623

>  <r_j_QM_Dipole_X_(debye)> (1)
0.00371092273616553

>  <r_j_QM_Dipole_Y_(debye)> (1)
-0.00700487723803876

>  <r_j_QM_Dipole_Z_(debye)> (1)
-0.0185919637049893

>  <r_j_Lowest_Frequency_(cm-1)> (1)
47.0717311735446

>  <r_j_Highest_Frequency_(cm-1)> (1)
3057.84075051366

>  <r_j_2nd_Lowest_Frequency_(cm-1)> (1)
56.8884445963613

>  <i_j_Num_Negative_Frequencies> (1)
0

>  <r_j_Zero_Point_Energy_(kcal/mol)> (1)
243.269746754584

>  <r_j_Entropy_(cal/mol/K)_298.15K_1.00E+00atm> (1)
126.489207711344

>  <r_j_Enthalpy_(kcal/mol)_298.15K_1.00E+00atm> (1)
10.9228795348951

>  <r_j_Free_Energy_(kcal/mol)_298.15K_1.00E+00atm> (1)
-26.7898777442423

>  <r_j_Internal_Energy_(kcal/mol)_298.15K_1.00E+00atm> (1)
10.3303939460678

>  <r_j_Heat_Capacity_(cal/mol/K)_298.15K_1.00E+00atm> (1)
62.5628390556492

>  <r_j_ln(Q)_298.15K_1.00E+00atm> (1)
45.2160833097533

>  <r_j_Total_Internal_Energy_(au)_298.15K_1.00E+00atm> (1)
-512.08163377863

>  <r_j_Total_Enthalpy_(au)_298.15K_1.00E+00atm> (1)
-512.080689592738

>  <r_j_Total_Free_Energy_(au)_298.15K_1.00E+00atm> (1)
-512.140788697344

>  <r_lp_tautomer_probability> (1)
1

>  <r_epik_Ionization_Penalty> (1)
  0.0000

>  <r_epik_Ionization_Penalty_Charging> (1)
  0.0000

>  <r_epik_Ionization_Penalty_Neutral> (1)
  0.0000

>  <r_epik_State_Penalty> (1)
  0.0000

>  <r_epik_Charging_Adjusted_Penalty> (1)
0

>  <i_epik_Tot_Q> (1)
0

>  <i_epik_Tot_abs_Q> (1)
0

>  <s_lp_Force_Field> (1)
S-OPLS

>  <r_lp_Energy> (1)
8.031347

>  <b_lp_Chiralities_Consistent> (1)
1

$$$$
