519395_3,6-dimethyl decane
                    3D
 Schrodinger Suite 2021-3.
 38 37  0  0  1  0            999 V2000
   -4.3265   -1.5034   -2.4525 C   0  0  0  0  0  0
   -2.7953   -1.4734   -2.4531 C   0  0  0  0  0  0
   -2.2105   -0.6479   -1.3001 C   0  0  0  0  0  0
   -0.6771   -0.6024   -1.3168 C   0  0  0  0  0  0
   -0.0259    0.0805   -0.0979 C   0  0  0  0  0  0
   -0.4886    1.5371    0.0595 C   0  0  0  0  0  0
    1.5140    0.0254   -0.1692 C   0  0  0  0  0  0
    2.1134   -1.3889   -0.1775 C   0  0  0  0  0  0
    3.6376   -1.4389    0.0484 C   0  0  0  0  0  0
    4.3979   -0.6525   -1.0306 C   0  0  0  0  0  0
    4.1616   -2.8885    0.1090 C   0  0  0  0  0  0
    3.6150   -3.7290    1.2684 C   0  0  0  0  0  0
   -4.7188   -2.1016   -3.2816 H   0  0  0  0  0  0
   -4.7404   -0.4926   -2.5452 H   0  0  0  0  0  0
   -4.7117   -1.9322   -1.5200 H   0  0  0  0  0  0
   -2.4067   -2.4995   -2.3973 H   0  0  0  0  0  0
   -2.4355   -1.0651   -3.4076 H   0  0  0  0  0  0
   -2.6212    0.3686   -1.3494 H   0  0  0  0  0  0
   -2.5527   -1.0688   -0.3432 H   0  0  0  0  0  0
   -0.3059   -1.6321   -1.3904 H   0  0  0  0  0  0
   -0.3387   -0.0918   -2.2314 H   0  0  0  0  0  0
   -0.3387   -0.4742    0.8011 H   0  0  0  0  0  0
   -0.2485    2.1183   -0.8398 H   0  0  0  0  0  0
    0.0103    2.0179    0.9081 H   0  0  0  0  0  0
   -1.5670    1.6113    0.2261 H   0  0  0  0  0  0
    1.8402    0.5799   -1.0594 H   0  0  0  0  0  0
    1.9208    0.5720    0.6937 H   0  0  0  0  0  0
    1.6128   -1.9771    0.6020 H   0  0  0  0  0  0
    1.8905   -1.8901   -1.1295 H   0  0  0  0  0  0
    3.8473   -0.9689    1.0226 H   0  0  0  0  0  0
    4.1810   -1.0567   -2.0275 H   0  0  0  0  0  0
    5.4805   -0.7165   -0.8750 H   0  0  0  0  0  0
    4.1272    0.4071   -1.0351 H   0  0  0  0  0  0
    3.9381   -3.3866   -0.8457 H   0  0  0  0  0  0
    5.2567   -2.8571    0.1825 H   0  0  0  0  0  0
    4.1021   -4.7089    1.3052 H   0  0  0  0  0  0
    2.5383   -3.9035    1.1800 H   0  0  0  0  0  0
    3.7927   -3.2330    2.2300 H   0  0  0  0  0  0
  1  2  1  0  0  0
  1 13  1  0  0  0
  1 14  1  0  0  0
  1 15  1  0  0  0
  2  3  1  0  0  0
  2 16  1  0  0  0
  2 17  1  0  0  0
  3  4  1  0  0  0
  3 18  1  0  0  0
  3 19  1  0  0  0
  4  5  1  0  0  0
  4 20  1  0  0  0
  4 21  1  0  0  0
  5  6  1  0  0  0
  5  7  1  0  0  0
  5 22  1  0  0  0
  6 23  1  0  0  0
  6 24  1  0  0  0
  6 25  1  0  0  0
  7  8  1  0  0  0
  7 26  1  0  0  0
  7 27  1  0  0  0
  8  9  1  0  0  0
  8 28  1  0  0  0
  8 29  1  0  0  0
  9 10  1  0  0  0
  9 11  1  0  0  0
  9 30  1  0  0  0
 10 31  1  0  0  0
 10 32  1  0  0  0
 10 33  1  0  0  0
 11 12  1  0  0  0
 11 34  1  0  0  0
 11 35  1  0  0  0
 12 36  1  0  0  0
 12 37  1  0  0  0
 12 38  1  0  0  0
M  END
>  <i_m_Spin_multiplicity> (1)
1

>  <s_j_Task> (1)
Single Point

>  <s_j_QM_Method> (1)
DFT(b3lyp-d3)

>  <s_j_QM_Basis> (1)
cc-pvtz(-f)

>  <i_j_Number_of_canonical_orbitals> (1)
506

>  <i_j_Geometry_convergence_category> (1)
3

>  <r_j_Gas_Phase_Energy> (1)
-473.157862319439

>  <r_j_Final_Energy> (1)
-473.157862319439

>  <r_j_HOMO> (1)
-0.29831696569916

>  <r_j_LUMO> (1)
0.017878355081745

>  <r_j_Polarizability> (1)
148.003226460105

>  <r_j_QM_Dipole_(debye)> (1)
0.11147748869397

>  <r_j_QM_Dipole_X_(debye)> (1)
0.0514218680128496

>  <r_j_QM_Dipole_Y_(debye)> (1)
-0.0707400794984437

>  <r_j_QM_Dipole_Z_(debye)> (1)
0.0691293217682423

>  <r_j_Lowest_Frequency_(cm-1)> (1)
52.9923618810539

>  <r_j_Highest_Frequency_(cm-1)> (1)
3057.05952633324

>  <r_j_2nd_Lowest_Frequency_(cm-1)> (1)
71.2084927224469

>  <i_j_Num_Negative_Frequencies> (1)
0

>  <r_j_Zero_Point_Energy_(kcal/mol)> (1)
225.245756527384

>  <r_j_Entropy_(cal/mol/K)_298.15K_1.00E+00atm> (1)
119.541102408939

>  <r_j_Enthalpy_(kcal/mol)_298.15K_1.00E+00atm> (1)
10.0729832038968

>  <r_j_Free_Energy_(kcal/mol)_298.15K_1.00E+00atm> (1)
-25.5681964793282

>  <r_j_Internal_Energy_(kcal/mol)_298.15K_1.00E+00atm> (1)
9.48049761506956

>  <r_j_Heat_Capacity_(cal/mol/K)_298.15K_1.00E+00atm> (1)
58.2065579791205

>  <r_j_ln(Q)_298.15K_1.00E+00atm> (1)
43.1541238495542

>  <r_j_Total_Internal_Energy_(au)_298.15K_1.00E+00atm> (1)
-472.783802220964

>  <r_j_Total_Enthalpy_(au)_298.15K_1.00E+00atm> (1)
-472.782858035071

>  <r_j_Total_Free_Energy_(au)_298.15K_1.00E+00atm> (1)
-472.839655870621

>  <r_lp_tautomer_probability> (1)
1

>  <r_epik_Ionization_Penalty> (1)
  0.0000

>  <r_epik_Ionization_Penalty_Charging> (1)
  0.0000

>  <r_epik_Ionization_Penalty_Neutral> (1)
  0.0000

>  <r_epik_State_Penalty> (1)
  0.0000

>  <r_epik_Charging_Adjusted_Penalty> (1)
0

>  <i_epik_Tot_Q> (1)
0

>  <i_epik_Tot_abs_Q> (1)
0

>  <s_lp_Force_Field> (1)
S-OPLS

>  <r_lp_Energy> (1)
7.315525

>  <b_lp_Chiralities_Consistent> (1)
1

$$$$
