519424_Undecane, 5-ethyl
                    3D
 Schrodinger Suite 2021-3.
 41 40  0  0  1  0            999 V2000
   -4.7639    4.4088    0.0585 C   0  0  0  0  0  0
   -4.1915    2.9882    0.0687 C   0  0  0  0  0  0
   -2.6616    2.9559   -0.0278 C   0  0  0  0  0  0
   -2.0814    1.5373   -0.0230 C   0  0  0  0  0  0
   -0.5516    1.5018   -0.1235 C   0  0  0  0  0  0
    0.0072    0.0724   -0.1467 C   0  0  0  0  0  0
    1.5447   -0.0462   -0.0866 C   0  0  0  0  0  0
    2.2097    0.6649   -1.2849 C   0  0  0  0  0  0
    3.7425    0.7018   -1.2532 C   0  0  0  0  0  0
    1.9907   -1.5207    0.0068 C   0  0  0  0  0  0
    1.4949   -2.2901    1.2389 C   0  0  0  0  0  0
    2.1131   -3.6894    1.3524 C   0  0  0  0  0  0
    1.6091   -4.4710    2.5692 C   0  0  0  0  0  0
   -5.8567    4.4039    0.1280 H   0  0  0  0  0  0
   -4.4904    4.9370   -0.8623 H   0  0  0  0  0  0
   -4.3785    4.9951    0.9008 H   0  0  0  0  0  0
   -4.5065    2.4707    0.9852 H   0  0  0  0  0  0
   -4.6176    2.4137   -0.7652 H   0  0  0  0  0  0
   -2.3453    3.4758   -0.9437 H   0  0  0  0  0  0
   -2.2328    3.5283    0.8075 H   0  0  0  0  0  0
   -2.3992    1.0175    0.8923 H   0  0  0  0  0  0
   -2.5121    0.9669   -0.8587 H   0  0  0  0  0  0
   -0.2461    2.0478   -1.0246 H   0  0  0  0  0  0
   -0.1178    2.0487    0.7264 H   0  0  0  0  0  0
   -0.4256   -0.4695    0.7027 H   0  0  0  0  0  0
   -0.3532   -0.4442   -1.0492 H   0  0  0  0  0  0
    1.8834    0.4629    0.8310 H   0  0  0  0  0  0
    1.8711    0.1828   -2.2137 H   0  0  0  0  0  0
    1.8463    1.6973   -1.3308 H   0  0  0  0  0  0
    4.1330    1.3269   -2.0630 H   0  0  0  0  0  0
    4.1857   -0.2919   -1.3673 H   0  0  0  0  0  0
    4.1049    1.1201   -0.3067 H   0  0  0  0  0  0
    1.6695   -2.0475   -0.9045 H   0  0  0  0  0  0
    3.0865   -1.5615    0.0075 H   0  0  0  0  0  0
    1.7296   -1.7150    2.1467 H   0  0  0  0  0  0
    0.4025   -2.3898    1.2162 H   0  0  0  0  0  0
    1.8952   -4.2548    0.4359 H   0  0  0  0  0  0
    3.2071   -3.5997    1.3996 H   0  0  0  0  0  0
    2.0661   -5.4644    2.6278 H   0  0  0  0  0  0
    0.5220   -4.6058    2.5286 H   0  0  0  0  0  0
    1.8403   -3.9417    3.5009 H   0  0  0  0  0  0
  1  2  1  0  0  0
  1 14  1  0  0  0
  1 15  1  0  0  0
  1 16  1  0  0  0
  2  3  1  0  0  0
  2 17  1  0  0  0
  2 18  1  0  0  0
  3  4  1  0  0  0
  3 19  1  0  0  0
  3 20  1  0  0  0
  4  5  1  0  0  0
  4 21  1  0  0  0
  4 22  1  0  0  0
  5  6  1  0  0  0
  5 23  1  0  0  0
  5 24  1  0  0  0
  6  7  1  0  0  0
  6 25  1  0  0  0
  6 26  1  0  0  0
  7  8  1  0  0  0
  7 10  1  0  0  0
  7 27  1  0  0  0
  8  9  1  0  0  0
  8 28  1  0  0  0
  8 29  1  0  0  0
  9 30  1  0  0  0
  9 31  1  0  0  0
  9 32  1  0  0  0
 10 11  1  0  0  0
 10 33  1  0  0  0
 10 34  1  0  0  0
 11 12  1  0  0  0
 11 35  1  0  0  0
 11 36  1  0  0  0
 12 13  1  0  0  0
 12 37  1  0  0  0
 12 38  1  0  0  0
 13 39  1  0  0  0
 13 40  1  0  0  0
 13 41  1  0  0  0
M  END
>  <i_m_Spin_multiplicity> (1)
1

>  <s_j_Task> (1)
Single Point

>  <s_j_QM_Method> (1)
DFT(b3lyp-d3)

>  <s_j_QM_Basis> (1)
cc-pvtz(-f)

>  <i_j_Number_of_canonical_orbitals> (1)
547

>  <i_j_Geometry_convergence_category> (1)
0

>  <r_j_Gas_Phase_Energy> (1)
-512.485837634115

>  <r_j_Final_Energy> (1)
-512.485837634115

>  <r_j_HOMO> (1)
-0.290321801368498

>  <r_j_LUMO> (1)
0.00912395913601079

>  <r_j_Polarizability> (1)
161.708611587505

>  <r_j_QM_Dipole_(debye)> (1)
0.0227287294819724

>  <r_j_QM_Dipole_X_(debye)> (1)
-0.00302064829310853

>  <r_j_QM_Dipole_Y_(debye)> (1)
0.00251520381379895

>  <r_j_QM_Dipole_Z_(debye)> (1)
-0.0223862586764531

>  <r_j_Lowest_Frequency_(cm-1)> (1)
51.3768005282165

>  <r_j_Highest_Frequency_(cm-1)> (1)
3056.15529484405

>  <r_j_2nd_Lowest_Frequency_(cm-1)> (1)
63.8007864871607

>  <i_j_Num_Negative_Frequencies> (1)
0

>  <r_j_Zero_Point_Energy_(kcal/mol)> (1)
243.253729747939

>  <r_j_Entropy_(cal/mol/K)_298.15K_1.00E+00atm> (1)
126.861376943243

>  <r_j_Enthalpy_(kcal/mol)_298.15K_1.00E+00atm> (1)
10.9388032078513

>  <r_j_Free_Energy_(kcal/mol)_298.15K_1.00E+00atm> (1)
-26.8849163277765

>  <r_j_Internal_Energy_(kcal/mol)_298.15K_1.00E+00atm> (1)
10.3463176190241

>  <r_j_Heat_Capacity_(cal/mol/K)_298.15K_1.00E+00atm> (1)
62.5710355546666

>  <r_j_ln(Q)_298.15K_1.00E+00atm> (1)
45.3764898838986

>  <r_j_Total_Internal_Energy_(au)_298.15K_1.00E+00atm> (1)
-512.081700231429

>  <r_j_Total_Enthalpy_(au)_298.15K_1.00E+00atm> (1)
-512.080756045537

>  <r_j_Total_Free_Energy_(au)_298.15K_1.00E+00atm> (1)
-512.141031979756

>  <r_lp_tautomer_probability> (1)
1

>  <r_epik_Ionization_Penalty> (1)
  0.0000

>  <r_epik_Ionization_Penalty_Charging> (1)
  0.0000

>  <r_epik_Ionization_Penalty_Neutral> (1)
  0.0000

>  <r_epik_State_Penalty> (1)
  0.0000

>  <r_epik_Charging_Adjusted_Penalty> (1)
0

>  <i_epik_Tot_Q> (1)
0

>  <i_epik_Tot_abs_Q> (1)
0

>  <s_lp_Force_Field> (1)
S-OPLS

>  <r_lp_Energy> (1)
8.058884

>  <b_lp_Chiralities_Consistent> (1)
1

$$$$
