519423_5-methyl dodecane
                    3D
 Schrodinger Suite 2021-3.
 41 40  0  0  1  0            999 V2000
   -4.8262    4.3960   -0.0195 C   0  0  0  0  0  0
   -4.2584    2.9753    0.0513 C   0  0  0  0  0  0
   -2.7262    2.9357    0.0036 C   0  0  0  0  0  0
   -2.1545    1.5153    0.0704 C   0  0  0  0  0  0
   -0.6229    1.4644    0.0346 C   0  0  0  0  0  0
   -0.0670    0.0366    0.0959 C   0  0  0  0  0  0
    1.4664   -0.0156    0.0992 C   0  0  0  0  0  0
    2.0701   -1.4318    0.0140 C   0  0  0  0  0  0
    1.6051   -2.3223    1.1770 C   0  0  0  0  0  0
    3.6112   -1.3992   -0.0320 C   0  0  0  0  0  0
    4.2271   -0.7140   -1.2583 C   0  0  0  0  0  0
    5.7555   -0.8367   -1.3025 C   0  0  0  0  0  0
    6.3777   -0.1549   -2.5244 C   0  0  0  0  0  0
   -5.9206    4.3950    0.0179 H   0  0  0  0  0  0
   -4.5245    4.8952   -0.9475 H   0  0  0  0  0  0
   -4.4644    5.0071    0.8155 H   0  0  0  0  0  0
   -4.6030    2.4868    0.9730 H   0  0  0  0  0  0
   -4.6607    2.3764   -0.7772 H   0  0  0  0  0  0
   -2.3785    3.4264   -0.9169 H   0  0  0  0  0  0
   -2.3218    3.5315    0.8347 H   0  0  0  0  0  0
   -2.5112    1.0242    0.9873 H   0  0  0  0  0  0
   -2.5565    0.9231   -0.7643 H   0  0  0  0  0  0
   -0.2617    1.9594   -0.8782 H   0  0  0  0  0  0
   -0.2198    2.0482    0.8747 H   0  0  0  0  0  0
   -0.4628   -0.4566    0.9925 H   0  0  0  0  0  0
   -0.4485   -0.5377   -0.7609 H   0  0  0  0  0  0
    1.8321    0.5830   -0.7444 H   0  0  0  0  0  0
    1.8447    0.4767    1.0079 H   0  0  0  0  0  0
    1.7177   -1.8888   -0.9244 H   0  0  0  0  0  0
    1.8890   -1.8795    2.1401 H   0  0  0  0  0  0
    2.0654   -3.3146    1.1196 H   0  0  0  0  0  0
    0.5205   -2.4624    1.1816 H   0  0  0  0  0  0
    3.9843   -0.9137    0.8824 H   0  0  0  0  0  0
    3.9798   -2.4339    0.0069 H   0  0  0  0  0  0
    3.8014   -1.1528   -2.1725 H   0  0  0  0  0  0
    3.9574    0.3497   -1.2775 H   0  0  0  0  0  0
    6.1783   -0.4052   -0.3848 H   0  0  0  0  0  0
    6.0335   -1.8995   -1.2928 H   0  0  0  0  0  0
    7.4679   -0.2582   -2.5320 H   0  0  0  0  0  0
    6.1439    0.9159   -2.5405 H   0  0  0  0  0  0
    5.9949   -0.5892   -3.4552 H   0  0  0  0  0  0
  1  2  1  0  0  0
  1 14  1  0  0  0
  1 15  1  0  0  0
  1 16  1  0  0  0
  2  3  1  0  0  0
  2 17  1  0  0  0
  2 18  1  0  0  0
  3  4  1  0  0  0
  3 19  1  0  0  0
  3 20  1  0  0  0
  4  5  1  0  0  0
  4 21  1  0  0  0
  4 22  1  0  0  0
  5  6  1  0  0  0
  5 23  1  0  0  0
  5 24  1  0  0  0
  6  7  1  0  0  0
  6 25  1  0  0  0
  6 26  1  0  0  0
  7  8  1  0  0  0
  7 27  1  0  0  0
  7 28  1  0  0  0
  8  9  1  0  0  0
  8 10  1  0  0  0
  8 29  1  0  0  0
  9 30  1  0  0  0
  9 31  1  0  0  0
  9 32  1  0  0  0
 10 11  1  0  0  0
 10 33  1  0  0  0
 10 34  1  0  0  0
 11 12  1  0  0  0
 11 35  1  0  0  0
 11 36  1  0  0  0
 12 13  1  0  0  0
 12 37  1  0  0  0
 12 38  1  0  0  0
 13 39  1  0  0  0
 13 40  1  0  0  0
 13 41  1  0  0  0
M  END
>  <i_m_Spin_multiplicity> (1)
1

>  <s_j_Task> (1)
Single Point

>  <s_j_QM_Method> (1)
DFT(b3lyp-d3)

>  <s_j_QM_Basis> (1)
cc-pvtz(-f)

>  <i_j_Number_of_canonical_orbitals> (1)
547

>  <i_j_Geometry_convergence_category> (1)
0

>  <r_j_Gas_Phase_Energy> (1)
-512.487739412189

>  <r_j_Final_Energy> (1)
-512.487739412189

>  <r_j_HOMO> (1)
-0.290236191237289

>  <r_j_LUMO> (1)
0.0288923918431127

>  <r_j_Polarizability> (1)
162.170377746045

>  <r_j_QM_Dipole_(debye)> (1)
0.0800609391469412

>  <r_j_QM_Dipole_X_(debye)> (1)
-0.0190304380494234

>  <r_j_QM_Dipole_Y_(debye)> (1)
-0.0676642220793616

>  <r_j_QM_Dipole_Z_(debye)> (1)
-0.0383294854535269

>  <r_j_Lowest_Frequency_(cm-1)> (1)
46.5685419728397

>  <r_j_Highest_Frequency_(cm-1)> (1)
3057.21637824242

>  <r_j_2nd_Lowest_Frequency_(cm-1)> (1)
65.0945364076144

>  <i_j_Num_Negative_Frequencies> (1)
0

>  <r_j_Zero_Point_Energy_(kcal/mol)> (1)
243.236720285474

>  <r_j_Entropy_(cal/mol/K)_298.15K_1.00E+00atm> (1)
126.523287588753

>  <r_j_Enthalpy_(kcal/mol)_298.15K_1.00E+00atm> (1)
10.897652902775

>  <r_j_Free_Energy_(kcal/mol)_298.15K_1.00E+00atm> (1)
-26.8252652918118

>  <r_j_Internal_Energy_(kcal/mol)_298.15K_1.00E+00atm> (1)
10.3051673139477

>  <r_j_Heat_Capacity_(cal/mol/K)_298.15K_1.00E+00atm> (1)
62.4647460371451

>  <r_j_ln(Q)_298.15K_1.00E+00atm> (1)
45.2758105811619

>  <r_j_Total_Internal_Energy_(au)_298.15K_1.00E+00atm> (1)
-512.083694692992

>  <r_j_Total_Enthalpy_(au)_298.15K_1.00E+00atm> (1)
-512.0827505071

>  <r_j_Total_Free_Energy_(au)_298.15K_1.00E+00atm> (1)
-512.142865804156

>  <r_lp_tautomer_probability> (1)
1

>  <r_epik_Ionization_Penalty> (1)
  0.0000

>  <r_epik_Ionization_Penalty_Charging> (1)
  0.0000

>  <r_epik_Ionization_Penalty_Neutral> (1)
  0.0000

>  <r_epik_State_Penalty> (1)
  0.0000

>  <r_epik_Charging_Adjusted_Penalty> (1)
0

>  <i_epik_Tot_Q> (1)
0

>  <i_epik_Tot_abs_Q> (1)
0

>  <s_lp_Force_Field> (1)
S-OPLS

>  <r_lp_Energy> (1)
6.761185

>  <b_lp_Chiralities_Consistent> (1)
1

$$$$
