520159_Methyl 14-methylhexadecanoate
                    3D
 Schrodinger Suite 2021-3.
 56 55  0  0  1  0            999 V2000
   -7.3437    5.5130    0.4168 C   0  0  0  0  0  0
   -6.5744    4.2122    0.1625 C   0  0  0  0  0  0
   -5.0576    4.3860   -0.0549 C   0  0  0  0  0  0
   -4.7547    5.2333   -1.3001 C   0  0  0  0  0  0
   -4.3752    3.0054   -0.1207 C   0  0  0  0  0  0
   -2.8418    3.0285   -0.1529 C   0  0  0  0  0  0
   -2.2248    1.6261   -0.0886 C   0  0  0  0  0  0
   -0.6924    1.6295   -0.1216 C   0  0  0  0  0  0
   -0.0812    0.2258   -0.0439 C   0  0  0  0  0  0
    1.4516    0.2246   -0.0634 C   0  0  0  0  0  0
    2.0527   -1.1842    0.0319 C   0  0  0  0  0  0
    3.5858   -1.2292   -0.0606 C   0  0  0  0  0  0
    4.3049   -0.5320    1.1045 C   0  0  0  0  0  0
    5.8284   -0.7314    1.1124 C   0  0  0  0  0  0
    6.5438   -0.1114   -0.0939 C   0  0  0  0  0  0
    8.0631   -0.2585   -0.0102 C   0  0  0  0  0  0
    8.7757    0.3247   -1.2127 C   0  0  0  0  0  0
    8.2414    0.8362   -2.1731 O   0  0  0  0  0  0
   10.1181    0.2012   -1.0867 O   0  0  0  0  0  0
   10.8844    0.7228   -2.1857 C   0  0  0  0  0  0
   -8.3929    5.3078    0.6533 H   0  0  0  0  0  0
   -7.3293    6.1765   -0.4534 H   0  0  0  0  0  0
   -6.9142    6.0643    1.2616 H   0  0  0  0  0  0
   -6.7289    3.5383    1.0158 H   0  0  0  0  0  0
   -7.0007    3.6973   -0.7106 H   0  0  0  0  0  0
   -4.6551    4.9156    0.8235 H   0  0  0  0  0  0
   -5.1384    4.7404   -2.2026 H   0  0  0  0  0  0
   -3.6801    5.3860   -1.4349 H   0  0  0  0  0  0
   -5.2160    6.2232   -1.2388 H   0  0  0  0  0  0
   -4.6951    2.4160    0.7502 H   0  0  0  0  0  0
   -4.7485    2.4649   -1.0036 H   0  0  0  0  0  0
   -2.4885    3.5300   -1.0628 H   0  0  0  0  0  0
   -2.4694    3.6283    0.6904 H   0  0  0  0  0  0
   -2.5665    1.1203    0.8260 H   0  0  0  0  0  0
   -2.6050    1.0237   -0.9262 H   0  0  0  0  0  0
   -0.3482    2.1266   -1.0399 H   0  0  0  0  0  0
   -0.3127    2.2378    0.7120 H   0  0  0  0  0  0
   -0.4320   -0.2716    0.8720 H   0  0  0  0  0  0
   -0.4570   -0.3814   -0.8799 H   0  0  0  0  0  0
    1.8060    0.7080   -0.9855 H   0  0  0  0  0  0
    1.8185    0.8451    0.7646 H   0  0  0  0  0  0
    1.7319   -1.6505    0.9748 H   0  0  0  0  0  0
    1.6299   -1.8030   -0.7713 H   0  0  0  0  0  0
    3.9100   -2.2787   -0.0960 H   0  0  0  0  0  0
    3.8978   -0.7816   -1.0132 H   0  0  0  0  0  0
    4.0883    0.5441    1.0863 H   0  0  0  0  0  0
    3.8925   -0.9101    2.0501 H   0  0  0  0  0  0
    6.2397   -0.2974    2.0343 H   0  0  0  0  0  0
    6.0536   -1.8070    1.1564 H   0  0  0  0  0  0
    6.1978   -0.5694   -1.0260 H   0  0  0  0  0  0
    6.2890    0.9527   -0.1728 H   0  0  0  0  0  0
    8.4653    0.2267    0.8883 H   0  0  0  0  0  0
    8.3568   -1.3132    0.0718 H   0  0  0  0  0  0
   11.9292    0.5477   -1.9281 H   0  0  0  0  0  0
   10.6949    1.7918   -2.3162 H   0  0  0  0  0  0
   10.6267    0.2080   -3.1154 H   0  0  0  0  0  0
  1  2  1  0  0  0
  1 21  1  0  0  0
  1 22  1  0  0  0
  1 23  1  0  0  0
  2  3  1  0  0  0
  2 24  1  0  0  0
  2 25  1  0  0  0
  3  4  1  0  0  0
  3  5  1  0  0  0
  3 26  1  0  0  0
  4 27  1  0  0  0
  4 28  1  0  0  0
  4 29  1  0  0  0
  5  6  1  0  0  0
  5 30  1  0  0  0
  5 31  1  0  0  0
  6  7  1  0  0  0
  6 32  1  0  0  0
  6 33  1  0  0  0
  7  8  1  0  0  0
  7 34  1  0  0  0
  7 35  1  0  0  0
  8  9  1  0  0  0
  8 36  1  0  0  0
  8 37  1  0  0  0
  9 10  1  0  0  0
  9 38  1  0  0  0
  9 39  1  0  0  0
 10 11  1  0  0  0
 10 40  1  0  0  0
 10 41  1  0  0  0
 11 12  1  0  0  0
 11 42  1  0  0  0
 11 43  1  0  0  0
 12 13  1  0  0  0
 12 44  1  0  0  0
 12 45  1  0  0  0
 13 14  1  0  0  0
 13 46  1  0  0  0
 13 47  1  0  0  0
 14 15  1  0  0  0
 14 48  1  0  0  0
 14 49  1  0  0  0
 15 16  1  0  0  0
 15 50  1  0  0  0
 15 51  1  0  0  0
 16 17  1  0  0  0
 16 52  1  0  0  0
 16 53  1  0  0  0
 17 18  2  0  0  0
 17 19  1  0  0  0
 19 20  1  0  0  0
 20 54  1  0  0  0
 20 55  1  0  0  0
 20 56  1  0  0  0
M  END
>  <i_m_Spin_multiplicity> (1)
1

>  <s_j_Task> (1)
Single Point

>  <s_j_QM_Method> (1)
DFT(b3lyp-d3)

>  <s_j_QM_Basis> (1)
cc-pvtz(-f)

>  <i_j_Number_of_canonical_orbitals> (1)
779

>  <i_j_Geometry_convergence_category> (1)
3

>  <r_j_Gas_Phase_Energy> (1)
-858.433997989321

>  <r_j_Final_Energy> (1)
-858.433997989321

>  <r_j_HOMO> (1)
-0.269993272704427

>  <r_j_LUMO> (1)
0.0111159715992776

>  <r_j_Polarizability> (1)
228.430030985867

>  <r_j_QM_Dipole_(debye)> (1)
1.61796907472733

>  <r_j_QM_Dipole_X_(debye)> (1)
1.0530114020523

>  <r_j_QM_Dipole_Y_(debye)> (1)
-0.603340748556611

>  <r_j_QM_Dipole_Z_(debye)> (1)
1.07003310932559

>  <r_j_Lowest_Frequency_(cm-1)> (1)
22.0219194593359

>  <r_j_Highest_Frequency_(cm-1)> (1)
3106.12867767051

>  <r_j_2nd_Lowest_Frequency_(cm-1)> (1)
42.5523275002467

>  <i_j_Num_Negative_Frequencies> (1)
0

>  <r_j_Zero_Point_Energy_(kcal/mol)> (1)
324.283770090298

>  <r_j_Entropy_(cal/mol/K)_298.15K_1.00E+00atm> (1)
160.786825921614

>  <r_j_Enthalpy_(kcal/mol)_298.15K_1.00E+00atm> (1)
15.5499156201685

>  <r_j_Free_Energy_(kcal/mol)_298.15K_1.00E+00atm> (1)
-32.3886765283607

>  <r_j_Internal_Energy_(kcal/mol)_298.15K_1.00E+00atm> (1)
14.9574300313412

>  <r_j_Heat_Capacity_(cal/mol/K)_298.15K_1.00E+00atm> (1)
90.7233787035726

>  <r_j_ln(Q)_298.15K_1.00E+00atm> (1)
54.6657625757085

>  <r_j_Total_Internal_Energy_(au)_298.15K_1.00E+00atm> (1)
-857.8933827216

>  <r_j_Total_Enthalpy_(au)_298.15K_1.00E+00atm> (1)
-857.892438535707

>  <r_j_Total_Free_Energy_(au)_298.15K_1.00E+00atm> (1)
-857.968833545568

>  <r_lp_tautomer_probability> (1)
1

>  <r_epik_Ionization_Penalty> (1)
  0.0000

>  <r_epik_Ionization_Penalty_Charging> (1)
  0.0000

>  <r_epik_Ionization_Penalty_Neutral> (1)
  0.0000

>  <r_epik_State_Penalty> (1)
  0.0000

>  <r_epik_Charging_Adjusted_Penalty> (1)
0

>  <i_epik_Tot_Q> (1)
0

>  <i_epik_Tot_abs_Q> (1)
0

>  <s_lp_Force_Field> (1)
S-OPLS

>  <r_lp_Energy> (1)
9.20142

>  <b_lp_Chiralities_Consistent> (1)
1

>  <s_epik_Chemistry_Notes> (1)
This compound has an ester and may undergo hydrolysis at high or low pH.

$$$$
