520454_4-methylundecane
                    3D
 Schrodinger Suite 2021-3.
 38 37  0  0  1  0            999 V2000
   -4.7567    4.4154   -0.0965 C   0  0  0  0  0  0
   -4.2068    2.9874   -0.0313 C   0  0  0  0  0  0
   -2.6747    2.9333   -0.0054 C   0  0  0  0  0  0
   -2.1180    1.5067    0.0553 C   0  0  0  0  0  0
   -0.5866    1.4457    0.0754 C   0  0  0  0  0  0
   -0.0387    0.0143    0.1225 C   0  0  0  0  0  0
    1.4943   -0.0418    0.1474 C   0  0  0  0  0  0
    2.0971   -1.4567    0.0405 C   0  0  0  0  0  0
    1.6530   -2.3560    1.2048 C   0  0  0  0  0  0
    3.6368   -1.4217   -0.0363 C   0  0  0  0  0  0
    4.2228   -0.7319   -1.2755 C   0  0  0  0  0  0
    5.7488   -0.8500   -1.3459 C   0  0  0  0  0  0
   -5.8515    4.4256   -0.1146 H   0  0  0  0  0  0
   -4.4032    4.9328   -0.9960 H   0  0  0  0  0  0
   -4.4317    5.0029    0.7699 H   0  0  0  0  0  0
   -4.6010    2.4813    0.8605 H   0  0  0  0  0  0
   -4.5733    2.4123   -0.8926 H   0  0  0  0  0  0
   -2.2787    3.4414   -0.8966 H   0  0  0  0  0  0
   -2.3055    3.5062    0.8576 H   0  0  0  0  0  0
   -2.5135    1.0002    0.9474 H   0  0  0  0  0  0
   -2.4916    0.9350   -0.8065 H   0  0  0  0  0  0
   -0.1904    1.9588   -0.8126 H   0  0  0  0  0  0
   -0.2107    2.0083    0.9422 H   0  0  0  0  0  0
   -0.4513   -0.4935    1.0034 H   0  0  0  0  0  0
   -0.4074   -0.5430   -0.7510 H   0  0  0  0  0  0
    1.8707    0.5732   -0.6793 H   0  0  0  0  0  0
    1.8621    0.4319    1.0702 H   0  0  0  0  0  0
    1.7281   -1.9065   -0.8951 H   0  0  0  0  0  0
    1.9621   -1.9250    2.1654 H   0  0  0  0  0  0
    2.1044   -3.3511    1.1270 H   0  0  0  0  0  0
    0.5677   -2.4881    1.2329 H   0  0  0  0  0  0
    4.0296   -0.9371    0.8704 H   0  0  0  0  0  0
    4.0092   -2.4555   -0.0083 H   0  0  0  0  0  0
    3.7773   -1.1732   -2.1778 H   0  0  0  0  0  0
    3.9450    0.3287   -1.2855 H   0  0  0  0  0  0
    6.1508   -0.3513   -2.2340 H   0  0  0  0  0  0
    6.0628   -1.8997   -1.3808 H   0  0  0  0  0  0
    6.2194   -0.3954   -0.4664 H   0  0  0  0  0  0
  1  2  1  0  0  0
  1 13  1  0  0  0
  1 14  1  0  0  0
  1 15  1  0  0  0
  2  3  1  0  0  0
  2 16  1  0  0  0
  2 17  1  0  0  0
  3  4  1  0  0  0
  3 18  1  0  0  0
  3 19  1  0  0  0
  4  5  1  0  0  0
  4 20  1  0  0  0
  4 21  1  0  0  0
  5  6  1  0  0  0
  5 22  1  0  0  0
  5 23  1  0  0  0
  6  7  1  0  0  0
  6 24  1  0  0  0
  6 25  1  0  0  0
  7  8  1  0  0  0
  7 26  1  0  0  0
  7 27  1  0  0  0
  8  9  1  0  0  0
  8 10  1  0  0  0
  8 28  1  0  0  0
  9 29  1  0  0  0
  9 30  1  0  0  0
  9 31  1  0  0  0
 10 11  1  0  0  0
 10 32  1  0  0  0
 10 33  1  0  0  0
 11 12  1  0  0  0
 11 34  1  0  0  0
 11 35  1  0  0  0
 12 36  1  0  0  0
 12 37  1  0  0  0
 12 38  1  0  0  0
M  END
>  <i_m_Spin_multiplicity> (1)
1

>  <s_j_Task> (1)
Single Point

>  <s_j_QM_Method> (1)
DFT(b3lyp-d3)

>  <s_j_QM_Basis> (1)
cc-pvtz(-f)

>  <i_j_Number_of_canonical_orbitals> (1)
506

>  <i_j_Geometry_convergence_category> (1)
0

>  <r_j_Gas_Phase_Energy> (1)
-473.15825490443

>  <r_j_Final_Energy> (1)
-473.15825490443

>  <r_j_HOMO> (1)
-0.290872635311623

>  <r_j_LUMO> (1)
0.0281919386427735

>  <r_j_Polarizability> (1)
149.716251197055

>  <r_j_QM_Dipole_(debye)> (1)
0.118896673436524

>  <r_j_QM_Dipole_X_(debye)> (1)
-0.0658291578220073

>  <r_j_QM_Dipole_Y_(debye)> (1)
-0.0250695574984036

>  <r_j_QM_Dipole_Z_(debye)> (1)
-0.0957833922011057

>  <r_j_Lowest_Frequency_(cm-1)> (1)
52.3963768890399

>  <r_j_Highest_Frequency_(cm-1)> (1)
3056.80368147597

>  <r_j_2nd_Lowest_Frequency_(cm-1)> (1)
67.7288547637081

>  <i_j_Num_Negative_Frequencies> (1)
0

>  <r_j_Zero_Point_Energy_(kcal/mol)> (1)
225.376586843382

>  <r_j_Entropy_(cal/mol/K)_298.15K_1.00E+00atm> (1)
120.630719795128

>  <r_j_Enthalpy_(kcal/mol)_298.15K_1.00E+00atm> (1)
10.1269784122008

>  <r_j_Free_Energy_(kcal/mol)_298.15K_1.00E+00atm> (1)
-25.8390706947167

>  <r_j_Internal_Energy_(kcal/mol)_298.15K_1.00E+00atm> (1)
9.53449282337355

>  <r_j_Heat_Capacity_(cal/mol/K)_298.15K_1.00E+00atm> (1)
57.7101684120918

>  <r_j_ln(Q)_298.15K_1.00E+00atm> (1)
43.611306640995

>  <r_j_Total_Internal_Energy_(au)_298.15K_1.00E+00atm> (1)
-472.783900267732

>  <r_j_Total_Enthalpy_(au)_298.15K_1.00E+00atm> (1)
-472.782956081839

>  <r_j_Total_Free_Energy_(au)_298.15K_1.00E+00atm> (1)
-472.840271629774

>  <r_lp_tautomer_probability> (1)
1

>  <r_epik_Ionization_Penalty> (1)
  0.0000

>  <r_epik_Ionization_Penalty_Charging> (1)
  0.0000

>  <r_epik_Ionization_Penalty_Neutral> (1)
  0.0000

>  <r_epik_State_Penalty> (1)
  0.0000

>  <r_epik_Charging_Adjusted_Penalty> (1)
0

>  <i_epik_Tot_Q> (1)
0

>  <i_epik_Tot_abs_Q> (1)
0

>  <s_lp_Force_Field> (1)
S-OPLS

>  <r_lp_Energy> (1)
6.273939

>  <b_lp_Chiralities_Consistent> (1)
1

$$$$
