520522_1,2,3-trimethyl-5-ethyl benzene
                    3D
 Schrodinger Suite 2021-3.
 27 27  0  0  1  0            999 V2000
   -0.5573    1.4524    0.0315 C   0  0  0  0  0  0
   -0.0133    0.0134   -0.0139 C   0  0  0  0  0  0
    1.4992   -0.0268   -0.0094 C   0  0  0  0  0  0
    2.2287   -0.0235   -1.1966 C   0  0  0  0  0  0
    3.6286   -0.0098   -1.2065 C   0  0  0  0  0  0
    4.3351    0.0022    0.0118 C   0  0  0  0  0  0
    3.6091   -0.0005    1.2240 C   0  0  0  0  0  0
    2.2128   -0.0155    1.1917 C   0  0  0  0  0  0
    4.3061    0.0075    2.5682 C   0  0  0  0  0  0
    5.8513    0.0127    0.0121 C   0  0  0  0  0  0
    4.3225   -0.0141   -2.5542 C   0  0  0  0  0  0
   -1.6525    1.4638    0.0334 H   0  0  0  0  0  0
   -0.2099    2.0253   -0.8345 H   0  0  0  0  0  0
   -0.2081    1.9697    0.9311 H   0  0  0  0  0  0
   -0.3991   -0.5454    0.8474 H   0  0  0  0  0  0
   -0.3946   -0.4912   -0.9096 H   0  0  0  0  0  0
    1.6978   -0.0335   -2.1474 H   0  0  0  0  0  0
    1.6642   -0.0195    2.1316 H   0  0  0  0  0  0
    3.5785    0.0052    3.3841 H   0  0  0  0  0  0
    4.9390    0.8933    2.6951 H   0  0  0  0  0  0
    4.9504   -0.8693    2.7002 H   0  0  0  0  0  0
    6.2679    0.0268    1.0194 H   0  0  0  0  0  0
    6.2469    0.8899   -0.5129 H   0  0  0  0  0  0
    6.2580   -0.8714   -0.4924 H   0  0  0  0  0  0
    5.4104   -0.0021   -2.4824 H   0  0  0  0  0  0
    4.0224    0.8578   -3.1470 H   0  0  0  0  0  0
    4.0409   -0.9026   -3.1312 H   0  0  0  0  0  0
  1  2  1  0  0  0
  1 12  1  0  0  0
  1 13  1  0  0  0
  1 14  1  0  0  0
  2  3  1  0  0  0
  2 15  1  0  0  0
  2 16  1  0  0  0
  3  8  1  0  0  0
  3  4  2  0  0  0
  4  5  1  0  0  0
  4 17  1  0  0  0
  5  6  2  0  0  0
  5 11  1  0  0  0
  6  7  1  0  0  0
  6 10  1  0  0  0
  7  8  2  0  0  0
  7  9  1  0  0  0
  8 18  1  0  0  0
  9 19  1  0  0  0
  9 20  1  0  0  0
  9 21  1  0  0  0
 10 22  1  0  0  0
 10 23  1  0  0  0
 10 24  1  0  0  0
 11 25  1  0  0  0
 11 26  1  0  0  0
 11 27  1  0  0  0
M  END
>  <i_m_Spin_multiplicity> (1)
1

>  <s_j_Task> (1)
Single Point

>  <s_j_QM_Method> (1)
DFT(b3lyp-d3)

>  <s_j_QM_Basis> (1)
cc-pvtz(-f)

>  <i_j_Number_of_canonical_orbitals> (1)
389

>  <i_j_Geometry_convergence_category> (1)
0

>  <r_j_Gas_Phase_Energy> (1)
-428.985603353634

>  <r_j_Final_Energy> (1)
-428.985603353634

>  <r_j_HOMO> (1)
-0.226523632927308

>  <r_j_LUMO> (1)
-0.00319303461362147

>  <r_j_Polarizability> (1)
130.016658464991

>  <r_j_QM_Dipole_(debye)> (1)
0.387367740636835

>  <r_j_QM_Dipole_X_(debye)> (1)
0.382651049551939

>  <r_j_QM_Dipole_Y_(debye)> (1)
0.0268938447025904

>  <r_j_QM_Dipole_Z_(debye)> (1)
-0.0539320116442838

>  <r_j_Lowest_Frequency_(cm-1)> (1)
80.1967710026349

>  <r_j_Highest_Frequency_(cm-1)> (1)
3103.47837346091

>  <r_j_2nd_Lowest_Frequency_(cm-1)> (1)
101.311725837861

>  <i_j_Num_Negative_Frequencies> (1)
0

>  <r_j_Zero_Point_Energy_(kcal/mol)> (1)
149.953834144428

>  <r_j_Entropy_(cal/mol/K)_298.15K_1.00E+00atm> (1)
102.944164775041

>  <r_j_Enthalpy_(kcal/mol)_298.15K_1.00E+00atm> (1)
7.85166632255785

>  <r_j_Free_Energy_(kcal/mol)_298.15K_1.00E+00atm> (1)
-22.8411364051207

>  <r_j_Internal_Energy_(kcal/mol)_298.15K_1.00E+00atm> (1)
7.25918073373058

>  <r_j_Heat_Capacity_(cal/mol/K)_298.15K_1.00E+00atm> (1)
45.0074327013602

>  <r_j_ln(Q)_298.15K_1.00E+00atm> (1)
38.5513788619414

>  <r_j_Total_Internal_Energy_(au)_298.15K_1.00E+00atm> (1)
-428.735068465487

>  <r_j_Total_Enthalpy_(au)_298.15K_1.00E+00atm> (1)
-428.734124279594

>  <r_j_Total_Free_Energy_(au)_298.15K_1.00E+00atm> (1)
-428.783036374463

>  <r_lp_tautomer_probability> (1)
1

>  <r_epik_Ionization_Penalty> (1)
  0.0000

>  <r_epik_Ionization_Penalty_Charging> (1)
  0.0000

>  <r_epik_Ionization_Penalty_Neutral> (1)
  0.0000

>  <r_epik_State_Penalty> (1)
  0.0000

>  <r_epik_Charging_Adjusted_Penalty> (1)
0

>  <i_epik_Tot_Q> (1)
0

>  <i_epik_Tot_abs_Q> (1)
0

>  <s_lp_Force_Field> (1)
S-OPLS

>  <r_lp_Energy> (1)
6.9896

>  <b_lp_Chiralities_Consistent> (1)
1

$$$$
