520802_2-Methyl-3-hexyne
                    3D
 Schrodinger Suite 2021-3.
 19 18  0  0  1  0            999 V2000
   -3.2543   -1.0594   -0.9621 C   0  0  0  0  0  0
   -2.6797   -0.0003   -0.0021 C   0  0  0  0  0  0
   -1.2153    0.0172    0.0138 C   0  0  0  0  0  0
   -0.0055    0.0131    0.0063 C   0  0  0  0  0  0
    1.4632   -0.0087   -0.0242 C   0  0  0  0  0  0
    2.0034    0.7447   -1.2569 C   0  0  0  0  0  0
    1.9952   -1.4560    0.0179 C   0  0  0  0  0  0
   -4.3486   -1.0405   -0.9458 H   0  0  0  0  0  0
   -2.9216   -2.0614   -0.6764 H   0  0  0  0  0  0
   -2.9207   -0.8737   -1.9871 H   0  0  0  0  0  0
   -3.0533    0.9927   -0.2859 H   0  0  0  0  0  0
   -3.0541   -0.1845    1.0137 H   0  0  0  0  0  0
    1.8271    0.5103    0.8745 H   0  0  0  0  0  0
    1.6462    1.7780   -1.2755 H   0  0  0  0  0  0
    1.6728    0.2545   -2.1785 H   0  0  0  0  0  0
    3.0985    0.7556   -1.2473 H   0  0  0  0  0  0
    1.6330   -1.9838    0.9043 H   0  0  0  0  0  0
    3.0903   -1.4592    0.0346 H   0  0  0  0  0  0
    1.6636   -2.0100   -0.8664 H   0  0  0  0  0  0
  1  2  1  0  0  0
  1  8  1  0  0  0
  1  9  1  0  0  0
  1 10  1  0  0  0
  2  3  1  0  0  0
  2 11  1  0  0  0
  2 12  1  0  0  0
  3  4  3  0  0  0
  4  5  1  0  0  0
  5  6  1  0  0  0
  5  7  1  0  0  0
  5 13  1  0  0  0
  6 14  1  0  0  0
  6 15  1  0  0  0
  6 16  1  0  0  0
  7 17  1  0  0  0
  7 18  1  0  0  0
  7 19  1  0  0  0
M  END
>  <i_m_Spin_multiplicity> (1)
1

>  <s_j_Task> (1)
Single Point

>  <s_j_QM_Method> (1)
DFT(b3lyp-d3)

>  <s_j_QM_Basis> (1)
cc-pvtz(-f)

>  <i_j_Number_of_canonical_orbitals> (1)
267

>  <i_j_Geometry_convergence_category> (1)
0

>  <r_j_Gas_Phase_Energy> (1)
-274.026563289018

>  <r_j_Final_Energy> (1)
-274.026563289018

>  <r_j_HOMO> (1)
-0.250181045282282

>  <r_j_LUMO> (1)
0.0283141434310027

>  <r_j_Polarizability> (1)
85.3438128004863

>  <r_j_QM_Dipole_(debye)> (1)
0.0935635913903499

>  <r_j_QM_Dipole_X_(debye)> (1)
-0.0673640799636132

>  <r_j_QM_Dipole_Y_(debye)> (1)
-0.048575648132729

>  <r_j_QM_Dipole_Z_(debye)> (1)
-0.0430886617685161

>  <r_j_Lowest_Frequency_(cm-1)> (1)
80.5331281856187

>  <r_j_Highest_Frequency_(cm-1)> (1)
3067.51815599609

>  <r_j_2nd_Lowest_Frequency_(cm-1)> (1)
109.712301457971

>  <i_j_Num_Negative_Frequencies> (1)
0

>  <r_j_Zero_Point_Energy_(kcal/mol)> (1)
106.616797222069

>  <r_j_Entropy_(cal/mol/K)_298.15K_1.00E+00atm> (1)
88.9915372487603

>  <r_j_Enthalpy_(kcal/mol)_298.15K_1.00E+00atm> (1)
5.98727069141215

>  <r_j_Free_Energy_(kcal/mol)_298.15K_1.00E+00atm> (1)
-20.5455561393057

>  <r_j_Internal_Energy_(kcal/mol)_298.15K_1.00E+00atm> (1)
5.39478510258487

>  <r_j_Heat_Capacity_(cal/mol/K)_298.15K_1.00E+00atm> (1)
31.3880995002314

>  <r_j_ln(Q)_298.15K_1.00E+00atm> (1)
34.6768875509229

>  <r_j_Total_Internal_Energy_(au)_298.15K_1.00E+00atm> (1)
-273.848061469238

>  <r_j_Total_Enthalpy_(au)_298.15K_1.00E+00atm> (1)
-273.847117283345

>  <r_j_Total_Free_Energy_(au)_298.15K_1.00E+00atm> (1)
-273.889400034601

>  <r_lp_tautomer_probability> (1)
1

>  <r_epik_Ionization_Penalty> (1)
  0.0000

>  <r_epik_Ionization_Penalty_Charging> (1)
  0.0000

>  <r_epik_Ionization_Penalty_Neutral> (1)
  0.0000

>  <r_epik_State_Penalty> (1)
  0.0000

>  <r_epik_Charging_Adjusted_Penalty> (1)
0

>  <i_epik_Tot_Q> (1)
0

>  <i_epik_Tot_abs_Q> (1)
0

>  <s_lp_Force_Field> (1)
S-OPLS

>  <r_lp_Energy> (1)
0.1162

>  <b_lp_Chiralities_Consistent> (1)
1

$$$$
