520991_3,3-dimethylheptane
                    3D
 Schrodinger Suite 2021-3.
 29 28  0  0  1  0            999 V2000
   -2.7554    2.8836    0.0779 C   0  0  0  0  0  0
   -2.1247    1.4922   -0.0302 C   0  0  0  0  0  0
   -0.5920    1.5209    0.0411 C   0  0  0  0  0  0
    0.0239    0.1179   -0.0523 C   0  0  0  0  0  0
    1.5719    0.0254   -0.0464 C   0  0  0  0  0  0
    2.1649    0.7190   -1.2890 C   0  0  0  0  0  0
    2.1456    0.6933    1.2193 C   0  0  0  0  0  0
    1.9996   -1.4683   -0.0157 C   0  0  0  0  0  0
    1.5541   -2.3440   -1.1934 C   0  0  0  0  0  0
   -3.8481    2.8363    0.0233 H   0  0  0  0  0  0
   -2.4088    3.5374   -0.7308 H   0  0  0  0  0  0
   -2.4893    3.3643    1.0264 H   0  0  0  0  0  0
   -2.5118    0.8495    0.7725 H   0  0  0  0  0  0
   -2.4346    1.0196   -0.9723 H   0  0  0  0  0  0
   -0.2114    2.1564   -0.7693 H   0  0  0  0  0  0
   -0.2914    2.0063    0.9782 H   0  0  0  0  0  0
   -0.3607   -0.4871    0.7820 H   0  0  0  0  0  0
   -0.3527   -0.3564   -0.9678 H   0  0  0  0  0  0
    3.2489    0.5640   -1.3392 H   0  0  0  0  0  0
    1.9892    1.7989   -1.2651 H   0  0  0  0  0  0
    1.7276    0.3347   -2.2162 H   0  0  0  0  0  0
    3.2324    0.5604    1.2686 H   0  0  0  0  0  0
    1.7138    0.2553    2.1269 H   0  0  0  0  0  0
    1.9465    1.7690    1.2380 H   0  0  0  0  0  0
    3.0956   -1.5038    0.0520 H   0  0  0  0  0  0
    1.6259   -1.9124    0.9173 H   0  0  0  0  0  0
    1.9359   -3.3634   -1.0742 H   0  0  0  0  0  0
    1.9304   -1.9645   -2.1487 H   0  0  0  0  0  0
    0.4644   -2.4117   -1.2670 H   0  0  0  0  0  0
  1  2  1  0  0  0
  1 10  1  0  0  0
  1 11  1  0  0  0
  1 12  1  0  0  0
  2  3  1  0  0  0
  2 13  1  0  0  0
  2 14  1  0  0  0
  3  4  1  0  0  0
  3 15  1  0  0  0
  3 16  1  0  0  0
  4  5  1  0  0  0
  4 17  1  0  0  0
  4 18  1  0  0  0
  5  6  1  0  0  0
  5  7  1  0  0  0
  5  8  1  0  0  0
  6 19  1  0  0  0
  6 20  1  0  0  0
  6 21  1  0  0  0
  7 22  1  0  0  0
  7 23  1  0  0  0
  7 24  1  0  0  0
  8  9  1  0  0  0
  8 25  1  0  0  0
  8 26  1  0  0  0
  9 27  1  0  0  0
  9 28  1  0  0  0
  9 29  1  0  0  0
M  END
>  <i_m_Spin_multiplicity> (1)
1

>  <s_j_Task> (1)
Single Point

>  <s_j_QM_Method> (1)
DFT(b3lyp-d3)

>  <s_j_QM_Basis> (1)
cc-pvtz(-f)

>  <i_j_Number_of_canonical_orbitals> (1)
384

>  <i_j_Geometry_convergence_category> (1)
1

>  <r_j_Gas_Phase_Energy> (1)
-355.169698307216

>  <r_j_Final_Energy> (1)
-355.169698307216

>  <r_j_HOMO> (1)
-0.296588149920483

>  <r_j_LUMO> (1)
0.0279684376381727

>  <r_j_Polarizability> (1)
110.654666916782

>  <r_j_QM_Dipole_(debye)> (1)
0.0563676296966874

>  <r_j_QM_Dipole_X_(debye)> (1)
-0.0185700775515506

>  <r_j_QM_Dipole_Y_(debye)> (1)
-0.0532100717114151

>  <r_j_QM_Dipole_Z_(debye)> (1)
0.00107245783988624

>  <r_j_Lowest_Frequency_(cm-1)> (1)
97.3175139448031

>  <r_j_Highest_Frequency_(cm-1)> (1)
3058.23370835335

>  <r_j_2nd_Lowest_Frequency_(cm-1)> (1)
111.760099113228

>  <i_j_Num_Negative_Frequencies> (1)
0

>  <r_j_Zero_Point_Energy_(kcal/mol)> (1)
171.532901747905

>  <r_j_Entropy_(cal/mol/K)_298.15K_1.00E+00atm> (1)
101.250797537648

>  <r_j_Enthalpy_(kcal/mol)_298.15K_1.00E+00atm> (1)
7.74897324184435

>  <r_j_Free_Energy_(kcal/mol)_298.15K_1.00E+00atm> (1)
-22.4389520440053

>  <r_j_Internal_Energy_(kcal/mol)_298.15K_1.00E+00atm> (1)
7.15648765301708

>  <r_j_Heat_Capacity_(cal/mol/K)_298.15K_1.00E+00atm> (1)
44.267655618626

>  <r_j_ln(Q)_298.15K_1.00E+00atm> (1)
37.8725701808535

>  <r_j_Total_Internal_Energy_(au)_298.15K_1.00E+00atm> (1)
-354.884938637532

>  <r_j_Total_Enthalpy_(au)_298.15K_1.00E+00atm> (1)
-354.88399445164

>  <r_j_Total_Free_Energy_(au)_298.15K_1.00E+00atm> (1)
-354.932101973086

>  <r_lp_tautomer_probability> (1)
1

>  <r_epik_Ionization_Penalty> (1)
  0.0000

>  <r_epik_Ionization_Penalty_Charging> (1)
  0.0000

>  <r_epik_Ionization_Penalty_Neutral> (1)
  0.0000

>  <r_epik_State_Penalty> (1)
  0.0000

>  <r_epik_Charging_Adjusted_Penalty> (1)
0

>  <i_epik_Tot_Q> (1)
0

>  <i_epik_Tot_abs_Q> (1)
0

>  <s_lp_Force_Field> (1)
S-OPLS

>  <r_lp_Energy> (1)
7.711595

>  <b_lp_Chiralities_Consistent> (1)
1

$$$$
