520963_4-propyl-o-xylene
                    3D
 Schrodinger Suite 2021-3.
 27 27  0  0  1  0            999 V2000
   -2.0851    1.4808    0.0270 C   0  0  0  0  0  0
   -0.5552    1.4296    0.0224 C   0  0  0  0  0  0
   -0.0052   -0.0099   -0.0187 C   0  0  0  0  0  0
    1.5062   -0.0498   -0.0045 C   0  0  0  0  0  0
    2.2419   -0.0445   -1.1918 C   0  0  0  0  0  0
    3.6420   -0.0194   -1.2118 C   0  0  0  0  0  0
    4.3432    0.0037    0.0095 C   0  0  0  0  0  0
    3.6059   -0.0021    1.2011 C   0  0  0  0  0  0
    2.2146   -0.0284    1.2012 C   0  0  0  0  0  0
    5.8552    0.0316    0.0657 C   0  0  0  0  0  0
    4.3432   -0.0218   -2.5543 C   0  0  0  0  0  0
   -2.4516    2.5122    0.0546 H   0  0  0  0  0  0
   -2.4946    0.9576    0.8988 H   0  0  0  0  0  0
   -2.4994    1.0029   -0.8683 H   0  0  0  0  0  0
   -0.1618    1.9833   -0.8395 H   0  0  0  0  0  0
   -0.1596    1.9336    0.9133 H   0  0  0  0  0  0
   -0.4003   -0.5660    0.8415 H   0  0  0  0  0  0
   -0.3865   -0.5135   -0.9162 H   0  0  0  0  0  0
    1.7079   -0.0624   -2.1410 H   0  0  0  0  0  0
    4.1379    0.0109    2.1493 H   0  0  0  0  0  0
    1.6732   -0.0335    2.1444 H   0  0  0  0  0  0
    6.2068    0.0502    1.1009 H   0  0  0  0  0  0
    6.2657    0.9150   -0.4372 H   0  0  0  0  0  0
    6.2984   -0.8475   -0.4168 H   0  0  0  0  0  0
    5.4302    0.0103   -2.4676 H   0  0  0  0  0  0
    4.0346    0.8404   -3.1567 H   0  0  0  0  0  0
    4.0845   -0.9200   -3.1270 H   0  0  0  0  0  0
  1  2  1  0  0  0
  1 12  1  0  0  0
  1 13  1  0  0  0
  1 14  1  0  0  0
  2  3  1  0  0  0
  2 15  1  0  0  0
  2 16  1  0  0  0
  3  4  1  0  0  0
  3 17  1  0  0  0
  3 18  1  0  0  0
  4  9  1  0  0  0
  4  5  2  0  0  0
  5  6  1  0  0  0
  5 19  1  0  0  0
  6  7  2  0  0  0
  6 11  1  0  0  0
  7  8  1  0  0  0
  7 10  1  0  0  0
  8  9  2  0  0  0
  8 20  1  0  0  0
  9 21  1  0  0  0
 10 22  1  0  0  0
 10 23  1  0  0  0
 10 24  1  0  0  0
 11 25  1  0  0  0
 11 26  1  0  0  0
 11 27  1  0  0  0
M  END
>  <i_m_Spin_multiplicity> (1)
1

>  <s_j_Task> (1)
Single Point

>  <s_j_QM_Method> (1)
DFT(b3lyp-d3)

>  <s_j_QM_Basis> (1)
cc-pvtz(-f)

>  <i_j_Number_of_canonical_orbitals> (1)
389

>  <i_j_Geometry_convergence_category> (1)
3

>  <r_j_Gas_Phase_Energy> (1)
-428.985310324417

>  <r_j_Final_Energy> (1)
-428.985310324417

>  <r_j_HOMO> (1)
-0.22839471368334

>  <r_j_LUMO> (1)
-0.0069744050286293

>  <r_j_Polarizability> (1)
130.016327965559

>  <r_j_QM_Dipole_(debye)> (1)
0.404916943266536

>  <r_j_QM_Dipole_X_(debye)> (1)
0.201413732973164

>  <r_j_QM_Dipole_Y_(debye)> (1)
0.124076001953699

>  <r_j_QM_Dipole_Z_(debye)> (1)
-0.328626512706014

>  <r_j_Lowest_Frequency_(cm-1)> (1)
73.0759791084088

>  <r_j_Highest_Frequency_(cm-1)> (1)
3124.83154488376

>  <r_j_2nd_Lowest_Frequency_(cm-1)> (1)
86.9932942488536

>  <i_j_Num_Negative_Frequencies> (1)
0

>  <r_j_Zero_Point_Energy_(kcal/mol)> (1)
150.411958185013

>  <r_j_Entropy_(cal/mol/K)_298.15K_1.00E+00atm> (1)
102.289756643016

>  <r_j_Enthalpy_(kcal/mol)_298.15K_1.00E+00atm> (1)
7.68280298464111

>  <r_j_Free_Energy_(kcal/mol)_298.15K_1.00E+00atm> (1)
-22.814887958474

>  <r_j_Internal_Energy_(kcal/mol)_298.15K_1.00E+00atm> (1)
7.09031739581383

>  <r_j_Heat_Capacity_(cal/mol/K)_298.15K_1.00E+00atm> (1)
43.978829976587

>  <r_j_ln(Q)_298.15K_1.00E+00atm> (1)
38.5070766086181

>  <r_j_Total_Internal_Energy_(au)_298.15K_1.00E+00atm> (1)
-428.734314469995

>  <r_j_Total_Enthalpy_(au)_298.15K_1.00E+00atm> (1)
-428.733370284103

>  <r_j_Total_Free_Energy_(au)_298.15K_1.00E+00atm> (1)
-428.781971448549

>  <r_lp_tautomer_probability> (1)
1

>  <r_epik_Ionization_Penalty> (1)
  0.0000

>  <r_epik_Ionization_Penalty_Charging> (1)
  0.0000

>  <r_epik_Ionization_Penalty_Neutral> (1)
  0.0000

>  <r_epik_State_Penalty> (1)
  0.0000

>  <r_epik_Charging_Adjusted_Penalty> (1)
0

>  <i_epik_Tot_Q> (1)
0

>  <i_epik_Tot_abs_Q> (1)
0

>  <s_lp_Force_Field> (1)
S-OPLS

>  <r_lp_Energy> (1)
7.545738

>  <b_lp_Chiralities_Consistent> (1)
1

$$$$
