520964_2-ethyl-mesitylene
                    3D
 Schrodinger Suite 2021-3.
 27 27  0  0  1  0            999 V2000
   -0.5934    1.4597    0.0008 C   0  0  0  0  0  0
   -0.0332    0.0245   -0.0001 C   0  0  0  0  0  0
    1.4841   -0.0097    0.0029 C   0  0  0  0  0  0
    2.2019   -0.0061   -1.2127 C   0  0  0  0  0  0
    3.5985   -0.0100   -1.1904 C   0  0  0  0  0  0
    4.3181   -0.0155    0.0076 C   0  0  0  0  0  0
    3.5959   -0.0106    1.2002 C   0  0  0  0  0  0
    2.1960   -0.0066    1.2179 C   0  0  0  0  0  0
    1.4787   -0.0113    2.5509 C   0  0  0  0  0  0
    5.8288   -0.0255   -0.0023 C   0  0  0  0  0  0
    1.4861   -0.0102   -2.5465 C   0  0  0  0  0  0
   -1.6887    1.4575   -0.0002 H   0  0  0  0  0  0
   -0.2541    2.0151   -0.8792 H   0  0  0  0  0  0
   -0.2557    2.0130    0.8828 H   0  0  0  0  0  0
   -0.4238   -0.5106    0.8713 H   0  0  0  0  0  0
   -0.4211   -0.5088   -0.8738 H   0  0  0  0  0  0
    4.1408   -0.0098   -2.1341 H   0  0  0  0  0  0
    4.1338   -0.0112    2.1459 H   0  0  0  0  0  0
    2.1885    0.0808    3.3773 H   0  0  0  0  0  0
    0.9155   -0.9400    2.7038 H   0  0  0  0  0  0
    0.7623    0.8125    2.6366 H   0  0  0  0  0  0
    6.2382   -0.0214    1.0120 H   0  0  0  0  0  0
    6.2297    0.8487   -0.5284 H   0  0  0  0  0  0
    6.2169   -0.9132   -0.5154 H   0  0  0  0  0  0
    2.1967    0.0803   -3.3723 H   0  0  0  0  0  0
    0.7711    0.8147   -2.6329 H   0  0  0  0  0  0
    0.9212   -0.9379   -2.6992 H   0  0  0  0  0  0
  1  2  1  0  0  0
  1 12  1  0  0  0
  1 13  1  0  0  0
  1 14  1  0  0  0
  2  3  1  0  0  0
  2 15  1  0  0  0
  2 16  1  0  0  0
  3  8  1  0  0  0
  3  4  2  0  0  0
  4  5  1  0  0  0
  4 11  1  0  0  0
  5  6  2  0  0  0
  5 17  1  0  0  0
  6  7  1  0  0  0
  6 10  1  0  0  0
  7  8  2  0  0  0
  7 18  1  0  0  0
  8  9  1  0  0  0
  9 19  1  0  0  0
  9 20  1  0  0  0
  9 21  1  0  0  0
 10 22  1  0  0  0
 10 23  1  0  0  0
 10 24  1  0  0  0
 11 25  1  0  0  0
 11 26  1  0  0  0
 11 27  1  0  0  0
M  END
>  <i_m_Spin_multiplicity> (1)
1

>  <s_j_Task> (1)
Single Point

>  <s_j_QM_Method> (1)
DFT(b3lyp-d3)

>  <s_j_QM_Basis> (1)
cc-pvtz(-f)

>  <i_j_Number_of_canonical_orbitals> (1)
389

>  <i_j_Geometry_convergence_category> (1)
0

>  <r_j_Gas_Phase_Energy> (1)
-428.987515364761

>  <r_j_Final_Energy> (1)
-428.987515364761

>  <r_j_HOMO> (1)
-0.226234288566586

>  <r_j_LUMO> (1)
-0.00536098987312261

>  <r_j_Polarizability> (1)
129.346618467092

>  <r_j_QM_Dipole_(debye)> (1)
0.322595850127078

>  <r_j_QM_Dipole_X_(debye)> (1)
-0.31963312379336

>  <r_j_QM_Dipole_Y_(debye)> (1)
-0.0165870761278214

>  <r_j_QM_Dipole_Z_(debye)> (1)
-0.0403437429949295

>  <r_j_Lowest_Frequency_(cm-1)> (1)
95.6707918908841

>  <r_j_Highest_Frequency_(cm-1)> (1)
3107.18767205518

>  <r_j_2nd_Lowest_Frequency_(cm-1)> (1)
136.502139429273

>  <i_j_Num_Negative_Frequencies> (1)
0

>  <r_j_Zero_Point_Energy_(kcal/mol)> (1)
150.157959401633

>  <r_j_Entropy_(cal/mol/K)_298.15K_1.00E+00atm> (1)
101.086140064264

>  <r_j_Enthalpy_(kcal/mol)_298.15K_1.00E+00atm> (1)
7.71322597942162

>  <r_j_Free_Energy_(kcal/mol)_298.15K_1.00E+00atm> (1)
-22.4256066807388

>  <r_j_Internal_Energy_(kcal/mol)_298.15K_1.00E+00atm> (1)
7.12074039059434

>  <r_j_Heat_Capacity_(cal/mol/K)_298.15K_1.00E+00atm> (1)
44.8522466245851

>  <r_j_ln(Q)_298.15K_1.00E+00atm> (1)
37.8500458131421

>  <r_j_Total_Internal_Energy_(au)_298.15K_1.00E+00atm> (1)
-428.736875801039

>  <r_j_Total_Enthalpy_(au)_298.15K_1.00E+00atm> (1)
-428.735931615147

>  <r_j_Total_Free_Energy_(au)_298.15K_1.00E+00atm> (1)
-428.783960902514

>  <r_lp_tautomer_probability> (1)
1

>  <r_epik_Ionization_Penalty> (1)
  0.0000

>  <r_epik_Ionization_Penalty_Charging> (1)
  0.0000

>  <r_epik_Ionization_Penalty_Neutral> (1)
  0.0000

>  <r_epik_State_Penalty> (1)
  0.0000

>  <r_epik_Charging_Adjusted_Penalty> (1)
0

>  <i_epik_Tot_Q> (1)
0

>  <i_epik_Tot_abs_Q> (1)
0

>  <s_lp_Force_Field> (1)
S-OPLS

>  <r_lp_Energy> (1)
6.37863

>  <b_lp_Chiralities_Consistent> (1)
1

$$$$
