520962_5-propyl-m-xylene
                    3D
 Schrodinger Suite 2021-3.
 27 27  0  0  1  0            999 V2000
   -2.0854    1.4747    0.0333 C   0  0  0  0  0  0
   -0.5558    1.4277    0.0155 C   0  0  0  0  0  0
   -0.0025   -0.0105   -0.0262 C   0  0  0  0  0  0
    1.5093   -0.0454   -0.0190 C   0  0  0  0  0  0
    2.2337   -0.0400   -1.2117 C   0  0  0  0  0  0
    3.6355   -0.0140   -1.2153 C   0  0  0  0  0  0
    4.3044    0.0058    0.0093 C   0  0  0  0  0  0
    3.6074   -0.0004    1.2259 C   0  0  0  0  0  0
    2.2129   -0.0275    1.1936 C   0  0  0  0  0  0
    4.3630    0.0198    2.5340 C   0  0  0  0  0  0
    4.3926   -0.0114   -2.5231 C   0  0  0  0  0  0
   -2.4546    2.5050    0.0616 H   0  0  0  0  0  0
   -2.4856    0.9522    0.9101 H   0  0  0  0  0  0
   -2.5061    0.9930   -0.8571 H   0  0  0  0  0  0
   -0.1706    1.9800   -0.8512 H   0  0  0  0  0  0
   -0.1533    1.9354    0.9015 H   0  0  0  0  0  0
   -0.3922   -0.5659    0.8369 H   0  0  0  0  0  0
   -0.3859   -0.5162   -0.9217 H   0  0  0  0  0  0
    1.6986   -0.0559   -2.1599 H   0  0  0  0  0  0
    5.3927    0.0241    0.0216 H   0  0  0  0  0  0
    1.6563   -0.0337    2.1291 H   0  0  0  0  0  0
    3.6845    0.0066    3.3918 H   0  0  0  0  0  0
    4.9890    0.9161    2.6163 H   0  0  0  0  0  0
    5.0305   -0.8455    2.6213 H   0  0  0  0  0  0
    5.4742    0.0160   -2.3633 H   0  0  0  0  0  0
    4.1225    0.8563   -3.1362 H   0  0  0  0  0  0
    4.1642   -0.9051   -3.1157 H   0  0  0  0  0  0
  1  2  1  0  0  0
  1 12  1  0  0  0
  1 13  1  0  0  0
  1 14  1  0  0  0
  2  3  1  0  0  0
  2 15  1  0  0  0
  2 16  1  0  0  0
  3  4  1  0  0  0
  3 17  1  0  0  0
  3 18  1  0  0  0
  4  9  1  0  0  0
  4  5  2  0  0  0
  5  6  1  0  0  0
  5 19  1  0  0  0
  6  7  2  0  0  0
  6 11  1  0  0  0
  7  8  1  0  0  0
  7 20  1  0  0  0
  8  9  2  0  0  0
  8 10  1  0  0  0
  9 21  1  0  0  0
 10 22  1  0  0  0
 10 23  1  0  0  0
 10 24  1  0  0  0
 11 25  1  0  0  0
 11 26  1  0  0  0
 11 27  1  0  0  0
M  END
>  <i_m_Spin_multiplicity> (1)
1

>  <s_j_Task> (1)
Single Point

>  <s_j_QM_Method> (1)
DFT(b3lyp-d3)

>  <s_j_QM_Basis> (1)
cc-pvtz(-f)

>  <i_j_Number_of_canonical_orbitals> (1)
389

>  <i_j_Geometry_convergence_category> (1)
3

>  <r_j_Gas_Phase_Energy> (1)
-428.987337204742

>  <r_j_Final_Energy> (1)
-428.987337204742

>  <r_j_HOMO> (1)
-0.235195178133357

>  <r_j_LUMO> (1)
-0.00714086885447835

>  <r_j_Polarizability> (1)
130.363551130483

>  <r_j_QM_Dipole_(debye)> (1)
0.142637044387247

>  <r_j_QM_Dipole_X_(debye)> (1)
0.0501230447073794

>  <r_j_QM_Dipole_Y_(debye)> (1)
0.129735126706534

>  <r_j_QM_Dipole_Z_(debye)> (1)
-0.031651283058214

>  <r_j_Lowest_Frequency_(cm-1)> (1)
71.2113159993642

>  <r_j_Highest_Frequency_(cm-1)> (1)
3104.81096340506

>  <r_j_2nd_Lowest_Frequency_(cm-1)> (1)
104.305579874019

>  <i_j_Num_Negative_Frequencies> (1)
0

>  <r_j_Zero_Point_Energy_(kcal/mol)> (1)
150.250665582878

>  <r_j_Entropy_(cal/mol/K)_298.15K_1.00E+00atm> (1)
102.571779836049

>  <r_j_Enthalpy_(kcal/mol)_298.15K_1.00E+00atm> (1)
7.72546583985549

>  <r_j_Free_Energy_(kcal/mol)_298.15K_1.00E+00atm> (1)
-22.8563103182626

>  <r_j_Internal_Energy_(kcal/mol)_298.15K_1.00E+00atm> (1)
7.13298025102822

>  <r_j_Heat_Capacity_(cal/mol/K)_298.15K_1.00E+00atm> (1)
44.1160323634085

>  <r_j_ln(Q)_298.15K_1.00E+00atm> (1)
38.5769894648456

>  <r_j_Total_Internal_Energy_(au)_298.15K_1.00E+00atm> (1)
-428.736530398856

>  <r_j_Total_Enthalpy_(au)_298.15K_1.00E+00atm> (1)
-428.735586212964

>  <r_j_Total_Free_Energy_(au)_298.15K_1.00E+00atm> (1)
-428.78432137573

>  <r_lp_tautomer_probability> (1)
1

>  <r_epik_Ionization_Penalty> (1)
  0.0000

>  <r_epik_Ionization_Penalty_Charging> (1)
  0.0000

>  <r_epik_Ionization_Penalty_Neutral> (1)
  0.0000

>  <r_epik_State_Penalty> (1)
  0.0000

>  <r_epik_Charging_Adjusted_Penalty> (1)
0

>  <i_epik_Tot_Q> (1)
0

>  <i_epik_Tot_abs_Q> (1)
0

>  <s_lp_Force_Field> (1)
S-OPLS

>  <r_lp_Energy> (1)
5.69216

>  <b_lp_Chiralities_Consistent> (1)
1

$$$$
