521268_Isolimonene
                    3D
 Schrodinger Suite 2021-3.
 26 26  0  0  1  0            999 V2000
   -1.0376    1.8254    3.8376 C   0  0  0  0  0  0
   -1.3154    1.2945    2.4227 C   0  0  0  0  0  0
   -0.4959    2.0501    1.3628 C   0  0  0  0  0  0
   -0.5499    1.3401    0.0069 C   0  0  0  0  0  0
    0.0793   -0.0758    0.0974 C   0  0  0  0  0  0
   -0.4315   -0.7950    1.3233 C   0  0  0  0  0  0
   -1.0560   -0.1926    2.3391 C   0  0  0  0  0  0
    1.6052   -0.0202    0.0295 C   0  0  0  0  0  0
    2.3799   -0.0668    1.1187 C   0  0  0  0  0  0
    2.1845    0.1139   -1.3574 C   0  0  0  0  0  0
   -1.6501    1.3099    4.5857 H   0  0  0  0  0  0
   -1.2550    2.8971    3.9040 H   0  0  0  0  0  0
    0.0146    1.6763    4.1056 H   0  0  0  0  0  0
   -2.3855    1.4582    2.2118 H   0  0  0  0  0  0
   -0.8589    3.0809    1.2759 H   0  0  0  0  0  0
    0.5498    2.1057    1.6918 H   0  0  0  0  0  0
   -1.5958    1.2386   -0.3105 H   0  0  0  0  0  0
   -0.0425    1.9338   -0.7611 H   0  0  0  0  0  0
   -0.2543   -0.6431   -0.7850 H   0  0  0  0  0  0
   -0.2530   -1.8681    1.3615 H   0  0  0  0  0  0
   -1.4077   -0.7930    3.1782 H   0  0  0  0  0  0
    1.9573   -0.1815    2.1114 H   0  0  0  0  0  0
    3.4617    0.0049    1.0465 H   0  0  0  0  0  0
    1.7516    0.9689   -1.8914 H   0  0  0  0  0  0
    1.9564   -0.7757   -1.9592 H   0  0  0  0  0  0
    3.2702    0.2417   -1.3368 H   0  0  0  0  0  0
  1  2  1  0  0  0
  1 11  1  0  0  0
  1 12  1  0  0  0
  1 13  1  0  0  0
  2  7  1  0  0  0
  2  3  1  0  0  0
  2 14  1  0  0  0
  3  4  1  0  0  0
  3 15  1  0  0  0
  3 16  1  0  0  0
  4  5  1  0  0  0
  4 17  1  0  0  0
  4 18  1  0  0  0
  5  6  1  0  0  0
  5  8  1  0  0  0
  5 19  1  0  0  0
  6  7  2  0  0  0
  6 20  1  0  0  0
  7 21  1  0  0  0
  8  9  2  0  0  0
  8 10  1  0  0  0
  9 22  1  0  0  0
  9 23  1  0  0  0
 10 24  1  0  0  0
 10 25  1  0  0  0
 10 26  1  0  0  0
M  END
>  <i_m_Spin_multiplicity> (1)
1

>  <s_j_Task> (1)
Single Point

>  <s_j_QM_Method> (1)
DFT(b3lyp-d3)

>  <s_j_QM_Basis> (1)
cc-pvtz(-f)

>  <i_j_Number_of_canonical_orbitals> (1)
369

>  <i_j_Geometry_convergence_category> (1)
1

>  <r_j_Gas_Phase_Energy> (1)
-390.824143715401

>  <r_j_Final_Energy> (1)
-390.824143715401

>  <r_j_HOMO> (1)
-0.248687132880905

>  <r_j_LUMO> (1)
0.00291493719238236

>  <r_j_Polarizability> (1)
114.366345616012

>  <r_j_QM_Dipole_(debye)> (1)
0.62050629970995

>  <r_j_QM_Dipole_X_(debye)> (1)
-0.270642330714638

>  <r_j_QM_Dipole_Y_(debye)> (1)
0.274858383294934

>  <r_j_QM_Dipole_Z_(debye)> (1)
-0.486038749419814

>  <r_j_Lowest_Frequency_(cm-1)> (1)
79.8806622149751

>  <r_j_Highest_Frequency_(cm-1)> (1)
3177.57487305871

>  <r_j_2nd_Lowest_Frequency_(cm-1)> (1)
101.277621341388

>  <i_j_Num_Negative_Frequencies> (1)
0

>  <r_j_Zero_Point_Energy_(kcal/mol)> (1)
147.33350575585

>  <r_j_Entropy_(cal/mol/K)_298.15K_1.00E+00atm> (1)
95.0094790997968

>  <r_j_Enthalpy_(kcal/mol)_298.15K_1.00E+00atm> (1)
6.80591927313678

>  <r_j_Free_Energy_(kcal/mol)_298.15K_1.00E+00atm> (1)
-21.5211569204676

>  <r_j_Internal_Energy_(kcal/mol)_298.15K_1.00E+00atm> (1)
6.2134336843095

>  <r_j_Heat_Capacity_(cal/mol/K)_298.15K_1.00E+00atm> (1)
40.1416533953379

>  <r_j_ln(Q)_298.15K_1.00E+00atm> (1)
36.3235111980785

>  <r_j_Total_Internal_Energy_(au)_298.15K_1.00E+00atm> (1)
-390.57945109038

>  <r_j_Total_Enthalpy_(au)_298.15K_1.00E+00atm> (1)
-390.578506904488

>  <r_j_Total_Free_Energy_(au)_298.15K_1.00E+00atm> (1)
-390.623648974126

>  <r_lp_tautomer_probability> (1)
1

>  <r_epik_Ionization_Penalty> (1)
  0.0000

>  <r_epik_Ionization_Penalty_Charging> (1)
  0.0000

>  <r_epik_Ionization_Penalty_Neutral> (1)
  0.0000

>  <r_epik_State_Penalty> (1)
  0.0000

>  <r_epik_Charging_Adjusted_Penalty> (1)
0

>  <i_epik_Tot_Q> (1)
0

>  <i_epik_Tot_abs_Q> (1)
0

>  <s_lp_Force_Field> (1)
S-OPLS

>  <r_lp_Energy> (1)
2.49743

>  <b_lp_Chiralities_Consistent> (1)
1

$$$$
