521425_2,2,3,5-Tetramethylhexane
                    3D
 Schrodinger Suite 2021-3.
 32 31  0  0  1  0            999 V2000
   -0.7733   -0.7646   -1.1699 C   0  0  0  0  0  0
   -0.1416    0.0692   -0.0463 C   0  0  0  0  0  0
   -0.5812    1.5367   -0.1557 C   0  0  0  0  0  0
    1.3990   -0.0155   -0.0509 C   0  0  0  0  0  0
    2.0151   -1.4277    0.0699 C   0  0  0  0  0  0
    1.4330   -2.1647    1.2900 C   0  0  0  0  0  0
    3.5866   -1.4186    0.0527 C   0  0  0  0  0  0
    4.1758   -0.8344    1.3518 C   0  0  0  0  0  0
    4.1067   -0.5934   -1.1435 C   0  0  0  0  0  0
    4.1086   -2.8611   -0.1226 C   0  0  0  0  0  0
   -0.3956   -0.4424   -2.1484 H   0  0  0  0  0  0
   -1.8626   -0.6495   -1.1797 H   0  0  0  0  0  0
   -0.5547   -1.8316   -1.0646 H   0  0  0  0  0  0
   -0.5127   -0.3138    0.9138 H   0  0  0  0  0  0
   -0.2507    1.9728   -1.1068 H   0  0  0  0  0  0
   -0.1567    2.1423    0.6527 H   0  0  0  0  0  0
   -1.6717    1.6297   -0.1090 H   0  0  0  0  0  0
    1.7449    0.4545   -0.9791 H   0  0  0  0  0  0
    1.7762    0.6109    0.7689 H   0  0  0  0  0  0
    1.7216   -1.9909   -0.8280 H   0  0  0  0  0  0
    1.5368   -1.5655    2.2014 H   0  0  0  0  0  0
    1.9202   -3.1267    1.4659 H   0  0  0  0  0  0
    0.3669   -2.3672    1.1538 H   0  0  0  0  0  0
    5.2697   -0.8040    1.2921 H   0  0  0  0  0  0
    3.9115   -1.4392    2.2246 H   0  0  0  0  0  0
    3.8293    0.1882    1.5322 H   0  0  0  0  0  0
    3.9177    0.4767   -1.0210 H   0  0  0  0  0  0
    3.6375   -0.9148   -2.0809 H   0  0  0  0  0  0
    5.1894   -0.7222   -1.2518 H   0  0  0  0  0  0
    5.2024   -2.8668   -0.1865 H   0  0  0  0  0  0
    3.7189   -3.3120   -1.0425 H   0  0  0  0  0  0
    3.8311   -3.5096    0.7133 H   0  0  0  0  0  0
  1  2  1  0  0  0
  1 11  1  0  0  0
  1 12  1  0  0  0
  1 13  1  0  0  0
  2  3  1  0  0  0
  2  4  1  0  0  0
  2 14  1  0  0  0
  3 15  1  0  0  0
  3 16  1  0  0  0
  3 17  1  0  0  0
  4  5  1  0  0  0
  4 18  1  0  0  0
  4 19  1  0  0  0
  5  6  1  0  0  0
  5  7  1  0  0  0
  5 20  1  0  0  0
  6 21  1  0  0  0
  6 22  1  0  0  0
  6 23  1  0  0  0
  7  8  1  0  0  0
  7  9  1  0  0  0
  7 10  1  0  0  0
  8 24  1  0  0  0
  8 25  1  0  0  0
  8 26  1  0  0  0
  9 27  1  0  0  0
  9 28  1  0  0  0
  9 29  1  0  0  0
 10 30  1  0  0  0
 10 31  1  0  0  0
 10 32  1  0  0  0
M  END
>  <i_m_Spin_multiplicity> (1)
1

>  <s_j_Task> (1)
Single Point

>  <s_j_QM_Method> (1)
DFT(b3lyp-d3)

>  <s_j_QM_Basis> (1)
cc-pvtz(-f)

>  <i_j_Number_of_canonical_orbitals> (1)
425

>  <i_j_Geometry_convergence_category> (1)
3

>  <r_j_Gas_Phase_Energy> (1)
-394.498384256466

>  <r_j_Final_Energy> (1)
-394.498384256466

>  <r_j_HOMO> (1)
-0.301654303355263

>  <r_j_LUMO> (1)
0.01704724550762

>  <r_j_Polarizability> (1)
121.693210635251

>  <r_j_QM_Dipole_(debye)> (1)
0.0831282925466831

>  <r_j_QM_Dipole_X_(debye)> (1)
-0.0481118435084077

>  <r_j_QM_Dipole_Y_(debye)> (1)
-0.0461299545831017

>  <r_j_QM_Dipole_Z_(debye)> (1)
0.0496748510426593

>  <r_j_Lowest_Frequency_(cm-1)> (1)
84.5482727430782

>  <r_j_Highest_Frequency_(cm-1)> (1)
3070.37759535612

>  <r_j_2nd_Lowest_Frequency_(cm-1)> (1)
97.5701342668143

>  <i_j_Num_Negative_Frequencies> (1)
0

>  <r_j_Zero_Point_Energy_(kcal/mol)> (1)
189.154246418524

>  <r_j_Entropy_(cal/mol/K)_298.15K_1.00E+00atm> (1)
104.73987929441

>  <r_j_Enthalpy_(kcal/mol)_298.15K_1.00E+00atm> (1)
8.38791078556214

>  <r_j_Free_Energy_(kcal/mol)_298.15K_1.00E+00atm> (1)
-22.8402842260662

>  <r_j_Internal_Energy_(kcal/mol)_298.15K_1.00E+00atm> (1)
7.79542519673487

>  <r_j_Heat_Capacity_(cal/mol/K)_298.15K_1.00E+00atm> (1)
49.9209456689998

>  <r_j_ln(Q)_298.15K_1.00E+00atm> (1)
38.5499405500727

>  <r_j_Total_Internal_Energy_(au)_298.15K_1.00E+00atm> (1)
-394.184524974605

>  <r_j_Total_Enthalpy_(au)_298.15K_1.00E+00atm> (1)
-394.183580788713

>  <r_j_Total_Free_Energy_(au)_298.15K_1.00E+00atm> (1)
-394.233346085501

>  <r_lp_tautomer_probability> (1)
1

>  <r_epik_Ionization_Penalty> (1)
  0.0000

>  <r_epik_Ionization_Penalty_Charging> (1)
  0.0000

>  <r_epik_Ionization_Penalty_Neutral> (1)
  0.0000

>  <r_epik_State_Penalty> (1)
  0.0000

>  <r_epik_Charging_Adjusted_Penalty> (1)
0

>  <i_epik_Tot_Q> (1)
0

>  <i_epik_Tot_abs_Q> (1)
0

>  <s_lp_Force_Field> (1)
S-OPLS

>  <r_lp_Energy> (1)
10.3699

>  <b_lp_Chiralities_Consistent> (1)
1

$$$$
