521415_3-ethyl-4-methylheptane
                    3D
 Schrodinger Suite 2021-3.
 32 31  0  0  1  0            999 V2000
   -2.7489   -1.2910    2.5551 C   0  0  0  0  0  0
   -2.1709   -0.7133    1.2593 C   0  0  0  0  0  0
   -0.6392   -0.8058    1.2042 C   0  0  0  0  0  0
    0.0000   -0.1287   -0.0246 C   0  0  0  0  0  0
   -0.4735   -0.7719   -1.3407 C   0  0  0  0  0  0
    1.5532   -0.0548    0.0541 C   0  0  0  0  0  0
    2.2223   -1.4470    0.0269 C   0  0  0  0  0  0
    3.7422   -1.4178   -0.1793 C   0  0  0  0  0  0
    2.0657    0.7792    1.2508 C   0  0  0  0  0  0
    1.4453    2.1740    1.3880 C   0  0  0  0  0  0
   -3.8416   -1.2221    2.5752 H   0  0  0  0  0  0
   -2.3642   -0.7572    3.4319 H   0  0  0  0  0  0
   -2.4793   -2.3474    2.6691 H   0  0  0  0  0  0
   -2.6100   -1.2400    0.4037 H   0  0  0  0  0  0
   -2.4730    0.3386    1.1583 H   0  0  0  0  0  0
   -0.2370   -0.3526    2.1194 H   0  0  0  0  0  0
   -0.3449   -1.8639    1.2357 H   0  0  0  0  0  0
   -0.3577    0.9099   -0.0426 H   0  0  0  0  0  0
   -0.3348   -1.8586   -1.3368 H   0  0  0  0  0  0
    0.0784   -0.3682   -2.1970 H   0  0  0  0  0  0
   -1.5361   -0.5814   -1.5165 H   0  0  0  0  0  0
    1.8721    0.4747   -0.8587 H   0  0  0  0  0  0
    1.9939   -1.9791    0.9597 H   0  0  0  0  0  0
    1.7808   -2.0442   -0.7784 H   0  0  0  0  0  0
    4.1405   -2.4313   -0.2924 H   0  0  0  0  0  0
    4.2660   -0.9547    0.6623 H   0  0  0  0  0  0
    4.0042   -0.8549   -1.0831 H   0  0  0  0  0  0
    1.9141    0.2179    2.1826 H   0  0  0  0  0  0
    3.1506    0.8944    1.1499 H   0  0  0  0  0  0
    1.9591    2.7552    2.1607 H   0  0  0  0  0  0
    0.3871    2.1285    1.6634 H   0  0  0  0  0  0
    1.5187    2.7329    0.4477 H   0  0  0  0  0  0
  1  2  1  0  0  0
  1 11  1  0  0  0
  1 12  1  0  0  0
  1 13  1  0  0  0
  2  3  1  0  0  0
  2 14  1  0  0  0
  2 15  1  0  0  0
  3  4  1  0  0  0
  3 16  1  0  0  0
  3 17  1  0  0  0
  4  5  1  0  0  0
  4  6  1  0  0  0
  4 18  1  0  0  0
  5 19  1  0  0  0
  5 20  1  0  0  0
  5 21  1  0  0  0
  6  7  1  0  0  0
  6  9  1  0  0  0
  6 22  1  0  0  0
  7  8  1  0  0  0
  7 23  1  0  0  0
  7 24  1  0  0  0
  8 25  1  0  0  0
  8 26  1  0  0  0
  8 27  1  0  0  0
  9 10  1  0  0  0
  9 28  1  0  0  0
  9 29  1  0  0  0
 10 30  1  0  0  0
 10 31  1  0  0  0
 10 32  1  0  0  0
M  END
>  <i_m_Spin_multiplicity> (1)
1

>  <s_j_Task> (1)
Single Point

>  <s_j_QM_Method> (1)
DFT(b3lyp-d3)

>  <s_j_QM_Basis> (1)
cc-pvtz(-f)

>  <i_j_Number_of_canonical_orbitals> (1)
426

>  <i_j_Geometry_convergence_category> (1)
3

>  <r_j_Gas_Phase_Energy> (1)
-394.496051000995

>  <r_j_Final_Energy> (1)
-394.496051000995

>  <r_j_HOMO> (1)
-0.299650561754861

>  <r_j_LUMO> (1)
0.0203515293343406

>  <r_j_Polarizability> (1)
122.108842533081

>  <r_j_QM_Dipole_(debye)> (1)
0.0526374241577285

>  <r_j_QM_Dipole_X_(debye)> (1)
-0.00437132539279783

>  <r_j_QM_Dipole_Y_(debye)> (1)
0.0450481246310053

>  <r_j_QM_Dipole_Z_(debye)> (1)
-0.0268748284366676

>  <r_j_Lowest_Frequency_(cm-1)> (1)
70.8569813823544

>  <r_j_Highest_Frequency_(cm-1)> (1)
3057.0429315925

>  <r_j_2nd_Lowest_Frequency_(cm-1)> (1)
102.274184605811

>  <i_j_Num_Negative_Frequencies> (1)
0

>  <r_j_Zero_Point_Energy_(kcal/mol)> (1)
189.714279987836

>  <r_j_Entropy_(cal/mol/K)_298.15K_1.00E+00atm> (1)
107.339751572726

>  <r_j_Enthalpy_(kcal/mol)_298.15K_1.00E+00atm> (1)
8.5395983034042

>  <r_j_Free_Energy_(kcal/mol)_298.15K_1.00E+00atm> (1)
-23.463748628004

>  <r_j_Internal_Energy_(kcal/mol)_298.15K_1.00E+00atm> (1)
7.94711271457692

>  <r_j_Heat_Capacity_(cal/mol/K)_298.15K_1.00E+00atm> (1)
48.7546066200899

>  <r_j_ln(Q)_298.15K_1.00E+00atm> (1)
39.6022267384537

>  <r_j_Total_Internal_Energy_(au)_298.15K_1.00E+00atm> (1)
-394.181057519379

>  <r_j_Total_Enthalpy_(au)_298.15K_1.00E+00atm> (1)
-394.180113333487

>  <r_j_Total_Free_Energy_(au)_298.15K_1.00E+00atm> (1)
-394.231113913496

>  <r_lp_tautomer_probability> (1)
1

>  <r_epik_Ionization_Penalty> (1)
  0.0000

>  <r_epik_Ionization_Penalty_Charging> (1)
  0.0000

>  <r_epik_Ionization_Penalty_Neutral> (1)
  0.0000

>  <r_epik_State_Penalty> (1)
  0.0000

>  <r_epik_Charging_Adjusted_Penalty> (1)
0

>  <i_epik_Tot_Q> (1)
0

>  <i_epik_Tot_abs_Q> (1)
0

>  <s_lp_Force_Field> (1)
S-OPLS

>  <r_lp_Energy> (1)
8.36911

>  <b_lp_Chiralities_Consistent> (1)
1

$$$$
