521416_2,2,3-Trimethylheptane
                    3D
 Schrodinger Suite 2021-3.
 32 31  0  0  1  0            999 V2000
   -2.1441    1.5882   -0.2742 C   0  0  0  0  0  0
   -0.6647    1.4930    0.1104 C   0  0  0  0  0  0
   -0.0921    0.0797   -0.0520 C   0  0  0  0  0  0
    1.3929   -0.0126    0.3235 C   0  0  0  0  0  0
    1.9934   -1.4313    0.1892 C   0  0  0  0  0  0
    1.5196   -2.3112    1.3604 C   0  0  0  0  0  0
    3.5512   -1.4291    0.0045 C   0  0  0  0  0  0
    4.2558   -0.6203    1.1115 C   0  0  0  0  0  0
    3.9082   -0.8197   -1.3679 C   0  0  0  0  0  0
    4.0942   -2.8733    0.0240 C   0  0  0  0  0  0
   -2.5283    2.6062   -0.1510 H   0  0  0  0  0  0
   -2.7559    0.9232    0.3463 H   0  0  0  0  0  0
   -2.2989    1.2972   -1.3197 H   0  0  0  0  0  0
   -0.0793    2.1930   -0.5015 H   0  0  0  0  0  0
   -0.5333    1.8180    1.1515 H   0  0  0  0  0  0
   -0.6847   -0.6158    0.5570 H   0  0  0  0  0  0
   -0.2208   -0.2462   -1.0943 H   0  0  0  0  0  0
    1.9418    0.6963   -0.3068 H   0  0  0  0  0  0
    1.5261    0.3391    1.3560 H   0  0  0  0  0  0
    1.5865   -1.8738   -0.7335 H   0  0  0  0  0  0
    1.9819   -2.0004    2.3041 H   0  0  0  0  0  0
    1.7510   -3.3677    1.2047 H   0  0  0  0  0  0
    0.4362   -2.2351    1.4905 H   0  0  0  0  0  0
    5.3434   -0.6763    0.9896 H   0  0  0  0  0  0
    4.0179   -1.0054    2.1084 H   0  0  0  0  0  0
    3.9754    0.4369    1.0830 H   0  0  0  0  0  0
    3.5726    0.2169   -1.4647 H   0  0  0  0  0  0
    3.4542   -1.3961   -2.1822 H   0  0  0  0  0  0
    4.9932   -0.8253   -1.5202 H   0  0  0  0  0  0
    5.1547   -2.8851   -0.2513 H   0  0  0  0  0  0
    3.5574   -3.5083   -0.6907 H   0  0  0  0  0  0
    4.0090   -3.3316    1.0134 H   0  0  0  0  0  0
  1  2  1  0  0  0
  1 11  1  0  0  0
  1 12  1  0  0  0
  1 13  1  0  0  0
  2  3  1  0  0  0
  2 14  1  0  0  0
  2 15  1  0  0  0
  3  4  1  0  0  0
  3 16  1  0  0  0
  3 17  1  0  0  0
  4  5  1  0  0  0
  4 18  1  0  0  0
  4 19  1  0  0  0
  5  6  1  0  0  0
  5  7  1  0  0  0
  5 20  1  0  0  0
  6 21  1  0  0  0
  6 22  1  0  0  0
  6 23  1  0  0  0
  7  8  1  0  0  0
  7  9  1  0  0  0
  7 10  1  0  0  0
  8 24  1  0  0  0
  8 25  1  0  0  0
  8 26  1  0  0  0
  9 27  1  0  0  0
  9 28  1  0  0  0
  9 29  1  0  0  0
 10 30  1  0  0  0
 10 31  1  0  0  0
 10 32  1  0  0  0
M  END
>  <i_m_Spin_multiplicity> (1)
1

>  <s_j_Task> (1)
Single Point

>  <s_j_QM_Method> (1)
DFT(b3lyp-d3)

>  <s_j_QM_Basis> (1)
cc-pvtz(-f)

>  <i_j_Number_of_canonical_orbitals> (1)
425

>  <i_j_Geometry_convergence_category> (1)
0

>  <r_j_Gas_Phase_Energy> (1)
-394.497819974709

>  <r_j_Final_Energy> (1)
-394.497819974709

>  <r_j_HOMO> (1)
-0.300737613299745

>  <r_j_LUMO> (1)
0.0184351603784687

>  <r_j_Polarizability> (1)
122.650692607337

>  <r_j_QM_Dipole_(debye)> (1)
0.0435713441603345

>  <r_j_QM_Dipole_X_(debye)> (1)
-0.018243469365016

>  <r_j_QM_Dipole_Y_(debye)> (1)
0.0360460043514201

>  <r_j_QM_Dipole_Z_(debye)> (1)
-0.016319418732401

>  <r_j_Lowest_Frequency_(cm-1)> (1)
79.6493809019298

>  <r_j_Highest_Frequency_(cm-1)> (1)
3067.83064078818

>  <r_j_2nd_Lowest_Frequency_(cm-1)> (1)
95.6719096066682

>  <i_j_Num_Negative_Frequencies> (1)
0

>  <r_j_Zero_Point_Energy_(kcal/mol)> (1)
189.267270309962

>  <r_j_Entropy_(cal/mol/K)_298.15K_1.00E+00atm> (1)
105.957504751195

>  <r_j_Enthalpy_(kcal/mol)_298.15K_1.00E+00atm> (1)
8.4465376839432

>  <r_j_Free_Energy_(kcal/mol)_298.15K_1.00E+00atm> (1)
-23.1446923576257

>  <r_j_Internal_Energy_(kcal/mol)_298.15K_1.00E+00atm> (1)
7.85405209511592

>  <r_j_Heat_Capacity_(cal/mol/K)_298.15K_1.00E+00atm> (1)
49.4673926351674

>  <r_j_ln(Q)_298.15K_1.00E+00atm> (1)
39.063722045015

>  <r_j_Total_Internal_Energy_(au)_298.15K_1.00E+00atm> (1)
-394.183687149901

>  <r_j_Total_Enthalpy_(au)_298.15K_1.00E+00atm> (1)
-394.182742964009

>  <r_j_Total_Free_Energy_(au)_298.15K_1.00E+00atm> (1)
-394.233086793946

>  <r_lp_tautomer_probability> (1)
1

>  <r_epik_Ionization_Penalty> (1)
  0.0000

>  <r_epik_Ionization_Penalty_Charging> (1)
  0.0000

>  <r_epik_Ionization_Penalty_Neutral> (1)
  0.0000

>  <r_epik_State_Penalty> (1)
  0.0000

>  <r_epik_Charging_Adjusted_Penalty> (1)
0

>  <i_epik_Tot_Q> (1)
0

>  <i_epik_Tot_abs_Q> (1)
0

>  <s_lp_Force_Field> (1)
S-OPLS

>  <r_lp_Energy> (1)
10.0923

>  <b_lp_Chiralities_Consistent> (1)
1

$$$$
