521731_Benzene derivates
                    3D
 Schrodinger Suite 2021-3.
 78 78  0  0  1  0            999 V2000
  -11.0971    4.9880   -1.7261 C   0  0  0  0  0  0
   -9.6122    4.6455   -1.8789 C   0  0  0  0  0  0
   -8.7642    5.1004   -0.6852 C   0  0  0  0  0  0
   -7.2760    4.7644   -0.8337 C   0  0  0  0  0  0
   -6.4306    5.2151    0.3647 C   0  0  0  0  0  0
   -4.9210    4.9797    0.2020 C   0  0  0  0  0  0
   -4.5072    3.5036    0.1240 C   0  0  0  0  0  0
   -2.9888    3.3146    0.0325 C   0  0  0  0  0  0
   -2.5489    1.8471   -0.0326 C   0  0  0  0  0  0
   -1.0271    1.6846   -0.1176 C   0  0  0  0  0  0
   -0.5515    0.2272   -0.1513 C   0  0  0  0  0  0
    0.9758    0.1065   -0.2083 C   0  0  0  0  0  0
    1.4980   -1.3352   -0.2025 C   0  0  0  0  0  0
    3.0297   -1.4043   -0.2104 C   0  0  0  0  0  0
    3.6006   -2.8266   -0.1640 C   0  0  0  0  0  0
    5.1350   -2.8381   -0.1156 C   0  0  0  0  0  0
    5.7710   -4.2280    0.0322 C   0  0  0  0  0  0
    5.5760   -5.1545   -1.1754 C   0  0  0  0  0  0
    6.3336   -6.4813   -1.0274 C   0  0  0  0  0  0
    6.2587   -7.4012   -2.2550 C   0  0  0  0  0  0
    4.8553   -7.9387   -2.5569 C   0  0  0  0  0  0
    4.8333   -8.9165   -3.7476 C   0  0  0  0  0  0
    3.4456   -9.4477   -4.0244 C   0  0  0  0  0  0
    2.9881  -10.6171   -3.4043 C   0  0  0  0  0  0
    1.6878  -11.0775   -3.6111 C   0  0  0  0  0  0
    0.8198  -10.3726   -4.4458 C   0  0  0  0  0  0
    1.2630   -9.2062   -5.0710 C   0  0  0  0  0  0
    2.5644   -8.7506   -4.8607 C   0  0  0  0  0  0
  -11.6795    4.6523   -2.5904 H   0  0  0  0  0  0
  -11.2435    6.0696   -1.6247 H   0  0  0  0  0  0
  -11.5211    4.5138   -0.8333 H   0  0  0  0  0  0
   -9.4961    3.5611   -2.0116 H   0  0  0  0  0  0
   -9.2204    5.1063   -2.7961 H   0  0  0  0  0  0
   -8.8819    6.1852   -0.5485 H   0  0  0  0  0  0
   -9.1527    4.6371    0.2334 H   0  0  0  0  0  0
   -7.1684    3.6820   -0.9819 H   0  0  0  0  0  0
   -6.8865    5.2360   -1.7478 H   0  0  0  0  0  0
   -6.6059    6.2859    0.5366 H   0  0  0  0  0  0
   -6.7833    4.7017    1.2709 H   0  0  0  0  0  0
   -4.5688    5.5013   -0.6998 H   0  0  0  0  0  0
   -4.3953    5.4475    1.0456 H   0  0  0  0  0  0
   -4.8891    2.9736    1.0088 H   0  0  0  0  0  0
   -4.9801    3.0257   -0.7438 H   0  0  0  0  0  0
   -2.6110    3.8458   -0.8531 H   0  0  0  0  0  0
   -2.5110    3.7961    0.8980 H   0  0  0  0  0  0
   -2.9238    1.3148    0.8534 H   0  0  0  0  0  0
   -3.0192    1.3611   -0.8995 H   0  0  0  0  0  0
   -0.6567    2.2073   -1.0113 H   0  0  0  0  0  0
   -0.5635    2.1928    0.7404 H   0  0  0  0  0  0
   -0.9261   -0.2991    0.7383 H   0  0  0  0  0  0
   -0.9952   -0.2857   -1.0166 H   0  0  0  0  0  0
    1.3466    0.6224   -1.1058 H   0  0  0  0  0  0
    1.4082    0.6459    0.6470 H   0  0  0  0  0  0
    1.1142   -1.8586    0.6849 H   0  0  0  0  0  0
    1.0980   -1.8771   -1.0713 H   0  0  0  0  0  0
    3.4110   -0.8905   -1.1047 H   0  0  0  0  0  0
    3.4160   -0.8363    0.6484 H   0  0  0  0  0  0
    3.2068   -3.3499    0.7195 H   0  0  0  0  0  0
    3.2439   -3.3906   -1.0360 H   0  0  0  0  0  0
    5.5288   -2.3547   -1.0216 H   0  0  0  0  0  0
    5.4608   -2.2110    0.7255 H   0  0  0  0  0  0
    6.8484   -4.1048    0.2086 H   0  0  0  0  0  0
    5.3718   -4.7173    0.9325 H   0  0  0  0  0  0
    4.5072   -5.3504   -1.3226 H   0  0  0  0  0  0
    5.9213   -4.6410   -2.0851 H   0  0  0  0  0  0
    7.3887   -6.2614   -0.8150 H   0  0  0  0  0  0
    5.9539   -7.0194   -0.1469 H   0  0  0  0  0  0
    6.6386   -6.8636   -3.1359 H   0  0  0  0  0  0
    6.9369   -8.2522   -2.1043 H   0  0  0  0  0  0
    4.4554   -8.4479   -1.6693 H   0  0  0  0  0  0
    4.1653   -7.1130   -2.7696 H   0  0  0  0  0  0
    5.2229   -8.4058   -4.6375 H   0  0  0  0  0  0
    5.5177   -9.7492   -3.5412 H   0  0  0  0  0  0
    3.6601  -11.1711   -2.7527 H   0  0  0  0  0  0
    1.3530  -11.9886   -3.1227 H   0  0  0  0  0  0
   -0.1925  -10.7305   -4.6099 H   0  0  0  0  0  0
    0.5955   -8.6527   -5.7257 H   0  0  0  0  0  0
    2.9043   -7.8412   -5.3512 H   0  0  0  0  0  0
  1  2  1  0  0  0
  1 29  1  0  0  0
  1 30  1  0  0  0
  1 31  1  0  0  0
  2  3  1  0  0  0
  2 32  1  0  0  0
  2 33  1  0  0  0
  3  4  1  0  0  0
  3 34  1  0  0  0
  3 35  1  0  0  0
  4  5  1  0  0  0
  4 36  1  0  0  0
  4 37  1  0  0  0
  5  6  1  0  0  0
  5 38  1  0  0  0
  5 39  1  0  0  0
  6  7  1  0  0  0
  6 40  1  0  0  0
  6 41  1  0  0  0
  7  8  1  0  0  0
  7 42  1  0  0  0
  7 43  1  0  0  0
  8  9  1  0  0  0
  8 44  1  0  0  0
  8 45  1  0  0  0
  9 10  1  0  0  0
  9 46  1  0  0  0
  9 47  1  0  0  0
 10 11  1  0  0  0
 10 48  1  0  0  0
 10 49  1  0  0  0
 11 12  1  0  0  0
 11 50  1  0  0  0
 11 51  1  0  0  0
 12 13  1  0  0  0
 12 52  1  0  0  0
 12 53  1  0  0  0
 13 14  1  0  0  0
 13 54  1  0  0  0
 13 55  1  0  0  0
 14 15  1  0  0  0
 14 56  1  0  0  0
 14 57  1  0  0  0
 15 16  1  0  0  0
 15 58  1  0  0  0
 15 59  1  0  0  0
 16 17  1  0  0  0
 16 60  1  0  0  0
 16 61  1  0  0  0
 17 18  1  0  0  0
 17 62  1  0  0  0
 17 63  1  0  0  0
 18 19  1  0  0  0
 18 64  1  0  0  0
 18 65  1  0  0  0
 19 20  1  0  0  0
 19 66  1  0  0  0
 19 67  1  0  0  0
 20 21  1  0  0  0
 20 68  1  0  0  0
 20 69  1  0  0  0
 21 22  1  0  0  0
 21 70  1  0  0  0
 21 71  1  0  0  0
 22 23  1  0  0  0
 22 72  1  0  0  0
 22 73  1  0  0  0
 23 28  1  0  0  0
 23 24  2  0  0  0
 24 25  1  0  0  0
 24 74  1  0  0  0
 25 26  2  0  0  0
 25 75  1  0  0  0
 26 27  1  0  0  0
 26 76  1  0  0  0
 27 28  2  0  0  0
 27 77  1  0  0  0
 28 78  1  0  0  0
M  END
>  <i_m_Spin_multiplicity> (1)
1

>  <s_j_Task> (1)
Single Point

>  <s_j_QM_Method> (1)
DFT(b3lyp-d3)

>  <s_j_QM_Basis> (1)
cc-pvtz(-f)

>  <i_j_Number_of_canonical_orbitals> (1)
1076

>  <i_j_Geometry_convergence_category> (1)
3

>  <r_j_Gas_Phase_Energy> (1)
-1097.57821008766

>  <r_j_Final_Energy> (1)
-1097.57821008766

>  <r_j_HOMO> (1)
-0.274586600328984

>  <r_j_LUMO> (1)
-0.0418557330021947

>  <r_j_Polarizability> (1)
337.535315828257

>  <r_j_QM_Dipole_(debye)> (1)
0.485213542386145

>  <r_j_QM_Dipole_X_(debye)> (1)
0.376705542423718

>  <r_j_QM_Dipole_Y_(debye)> (1)
0.233830667938264

>  <r_j_QM_Dipole_Z_(debye)> (1)
0.19709980911637

>  <r_j_Lowest_Frequency_(cm-1)> (1)
17.3683394153585

>  <r_j_Highest_Frequency_(cm-1)> (1)
3145.03769905224

>  <r_j_2nd_Lowest_Frequency_(cm-1)> (1)
28.2832325285724

>  <i_j_Num_Negative_Frequencies> (1)
0

>  <r_j_Zero_Point_Energy_(kcal/mol)> (1)
455.620501116447

>  <r_j_Entropy_(cal/mol/K)_298.15K_1.00E+00atm> (1)
193.579148557155

>  <r_j_Enthalpy_(kcal/mol)_298.15K_1.00E+00atm> (1)
20.1888410571812

>  <r_j_Free_Energy_(kcal/mol)_298.15K_1.00E+00atm> (1)
-37.5267820851347

>  <r_j_Internal_Energy_(kcal/mol)_298.15K_1.00E+00atm> (1)
19.5963554683539

>  <r_j_Heat_Capacity_(cal/mol/K)_298.15K_1.00E+00atm> (1)
122.243294472251

>  <r_j_ln(Q)_298.15K_1.00E+00atm> (1)
63.3378816173617

>  <r_j_Total_Internal_Energy_(au)_298.15K_1.00E+00atm> (1)
-1096.82090381692

>  <r_j_Total_Enthalpy_(au)_298.15K_1.00E+00atm> (1)
-1096.81995963102

>  <r_j_Total_Free_Energy_(au)_298.15K_1.00E+00atm> (1)
-1096.91193533163

>  <r_lp_tautomer_probability> (1)
1

>  <r_epik_Ionization_Penalty> (1)
  0.0000

>  <r_epik_Ionization_Penalty_Charging> (1)
  0.0000

>  <r_epik_Ionization_Penalty_Neutral> (1)
  0.0000

>  <r_epik_State_Penalty> (1)
  0.0000

>  <r_epik_Charging_Adjusted_Penalty> (1)
0

>  <i_epik_Tot_Q> (1)
0

>  <i_epik_Tot_abs_Q> (1)
0

>  <s_lp_Force_Field> (1)
S-OPLS

>  <r_lp_Energy> (1)
20.520715

>  <b_lp_Chiralities_Consistent> (1)
1

$$$$
