522213_trans-1-methyl-2-(4-methylpentyl)cyclopentane
                    3D
 Schrodinger Suite 2021-3.
 36 36  0  0  1  0            999 V2000
   -2.4819    3.5924   -1.3105 C   0  0  0  0  0  0
   -2.6972    2.8735    0.0203 C   0  0  0  0  0  0
   -4.1757    2.6394    0.3756 C   0  0  0  0  0  0
   -4.1511    1.5756    1.4983 C   0  0  0  0  0  0
   -2.7892    0.8357    1.3424 C   0  0  0  0  0  0
   -2.1052    1.4489    0.0954 C   0  0  0  0  0  0
   -0.5754    1.3875    0.1207 C   0  0  0  0  0  0
   -0.0112   -0.0394    0.1229 C   0  0  0  0  0  0
    1.5218   -0.0766    0.1306 C   0  0  0  0  0  0
    2.1420   -1.4790   -0.0164 C   0  0  0  0  0  0
    1.7461   -2.4171    1.1333 C   0  0  0  0  0  0
    3.6703   -1.3811   -0.1261 C   0  0  0  0  0  0
   -2.9083    3.0105   -2.1369 H   0  0  0  0  0  0
   -1.4187    3.7456   -1.5234 H   0  0  0  0  0  0
   -2.9640    4.5760   -1.3124 H   0  0  0  0  0  0
   -2.2370    3.4703    0.8245 H   0  0  0  0  0  0
   -4.6954    3.5590    0.6650 H   0  0  0  0  0  0
   -4.6924    2.2455   -0.5102 H   0  0  0  0  0  0
   -4.2146    2.0533    2.4817 H   0  0  0  0  0  0
   -5.0038    0.8933    1.4283 H   0  0  0  0  0  0
   -2.1585    1.0079    2.2237 H   0  0  0  0  0  0
   -2.9090   -0.2481    1.2537 H   0  0  0  0  0  0
   -2.4567    0.9064   -0.7976 H   0  0  0  0  0  0
   -0.1718    1.9262   -0.7474 H   0  0  0  0  0  0
   -0.2132    1.9248    1.0100 H   0  0  0  0  0  0
   -0.4017   -0.5801    0.9930 H   0  0  0  0  0  0
   -0.3839   -0.5749   -0.7627 H   0  0  0  0  0  0
    1.8943    0.5573   -0.6867 H   0  0  0  0  0  0
    1.8921    0.3811    1.0603 H   0  0  0  0  0  0
    1.7620   -1.9131   -0.9540 H   0  0  0  0  0  0
    2.0644   -2.0011    2.0976 H   0  0  0  0  0  0
    2.2224   -3.3973    1.0214 H   0  0  0  0  0  0
    0.6650   -2.5786    1.1797 H   0  0  0  0  0  0
    4.0982   -0.9551    0.7901 H   0  0  0  0  0  0
    3.9720   -0.7409   -0.9624 H   0  0  0  0  0  0
    4.1235   -2.3671   -0.2762 H   0  0  0  0  0  0
  1  2  1  0  0  0
  1 13  1  0  0  0
  1 14  1  0  0  0
  1 15  1  0  0  0
  2  6  1  0  0  0
  2  3  1  0  0  0
  2 16  1  0  0  0
  3  4  1  0  0  0
  3 17  1  0  0  0
  3 18  1  0  0  0
  4  5  1  0  0  0
  4 19  1  0  0  0
  4 20  1  0  0  0
  5  6  1  0  0  0
  5 21  1  0  0  0
  5 22  1  0  0  0
  6  7  1  0  0  0
  6 23  1  0  0  0
  7  8  1  0  0  0
  7 24  1  0  0  0
  7 25  1  0  0  0
  8  9  1  0  0  0
  8 26  1  0  0  0
  8 27  1  0  0  0
  9 10  1  0  0  0
  9 28  1  0  0  0
  9 29  1  0  0  0
 10 11  1  0  0  0
 10 12  1  0  0  0
 10 30  1  0  0  0
 11 31  1  0  0  0
 11 32  1  0  0  0
 11 33  1  0  0  0
 12 34  1  0  0  0
 12 35  1  0  0  0
 12 36  1  0  0  0
M  END
>  <i_m_Spin_multiplicity> (1)
1

>  <s_j_Task> (1)
Single Point

>  <s_j_QM_Method> (1)
DFT(b3lyp-d3)

>  <s_j_QM_Basis> (1)
cc-pvtz(-f)

>  <i_j_Number_of_canonical_orbitals> (1)
488

>  <i_j_Geometry_convergence_category> (1)
1

>  <r_j_Gas_Phase_Energy> (1)
-471.944410586633

>  <r_j_Final_Energy> (1)
-471.944410586633

>  <r_j_HOMO> (1)
-0.287509613726301

>  <r_j_LUMO> (1)
0.0237881437028332

>  <r_j_Polarizability> (1)
143.041899152194

>  <r_j_QM_Dipole_(debye)> (1)
0.0912493360239439

>  <r_j_QM_Dipole_X_(debye)> (1)
-0.0672217054288028

>  <r_j_QM_Dipole_Y_(debye)> (1)
-0.000449454659558401

>  <r_j_QM_Dipole_Z_(debye)> (1)
-0.0617047942591409

>  <r_j_Lowest_Frequency_(cm-1)> (1)
67.9543817265906

>  <r_j_Highest_Frequency_(cm-1)> (1)
3053.970256282

>  <r_j_2nd_Lowest_Frequency_(cm-1)> (1)
75.178388165176

>  <i_j_Num_Negative_Frequencies> (1)
0

>  <r_j_Zero_Point_Energy_(kcal/mol)> (1)
212.15896891731

>  <r_j_Entropy_(cal/mol/K)_298.15K_1.00E+00atm> (1)
112.63744713968

>  <r_j_Enthalpy_(kcal/mol)_298.15K_1.00E+00atm> (1)
9.09018038032396

>  <r_j_Free_Energy_(kcal/mol)_298.15K_1.00E+00atm> (1)
-24.4926744843717

>  <r_j_Internal_Energy_(kcal/mol)_298.15K_1.00E+00atm> (1)
8.49769479149668

>  <r_j_Heat_Capacity_(cal/mol/K)_298.15K_1.00E+00atm> (1)
53.4618499389134

>  <r_j_ln(Q)_298.15K_1.00E+00atm> (1)
41.3388527016342

>  <r_j_Total_Internal_Energy_(au)_298.15K_1.00E+00atm> (1)
-471.592771807845

>  <r_j_Total_Enthalpy_(au)_298.15K_1.00E+00atm> (1)
-471.591827621952

>  <r_j_Total_Free_Energy_(au)_298.15K_1.00E+00atm> (1)
-471.645345308091

>  <r_lp_tautomer_probability> (1)
1

>  <r_epik_Ionization_Penalty> (1)
  0.0000

>  <r_epik_Ionization_Penalty_Charging> (1)
  0.0000

>  <r_epik_Ionization_Penalty_Neutral> (1)
  0.0000

>  <r_epik_State_Penalty> (1)
  0.0000

>  <r_epik_Charging_Adjusted_Penalty> (1)
0

>  <i_epik_Tot_Q> (1)
0

>  <i_epik_Tot_abs_Q> (1)
0

>  <s_lp_Force_Field> (1)
S-OPLS

>  <r_lp_Energy> (1)
9.714678

>  <b_lp_Chiralities_Consistent> (1)
1

$$$$
