524159_1-Methyl-4-n-pentylbenzene
                    3D
 Schrodinger Suite 2021-3.
 30 30  0  0  1  0            999 V2000
   -2.1355    1.5265   -0.0028 C   0  0  0  0  0  0
   -0.6051    1.4699   -0.0053 C   0  0  0  0  0  0
   -0.0569    0.0379   -0.0010 C   0  0  0  0  0  0
    1.4736   -0.0226    0.0000 C   0  0  0  0  0  0
    2.0280   -1.4604    0.0044 C   0  0  0  0  0  0
    3.5395   -1.4920    0.0068 C   0  0  0  0  0  0
    4.2638   -1.4681   -1.1925 C   0  0  0  0  0  0
    5.6558   -1.4349   -1.1922 C   0  0  0  0  0  0
    6.3791   -1.4246    0.0082 C   0  0  0  0  0  0
    5.6565   -1.4505    1.2051 C   0  0  0  0  0  0
    4.2614   -1.4835    1.2042 C   0  0  0  0  0  0
    7.8896   -1.3896   -0.0041 C   0  0  0  0  0  0
   -2.5005    2.5588   -0.0060 H   0  0  0  0  0  0
   -2.5467    1.0300    0.8837 H   0  0  0  0  0  0
   -2.5501    1.0232   -0.8838 H   0  0  0  0  0  0
   -0.2179    2.0016   -0.8851 H   0  0  0  0  0  0
   -0.2149    2.0079    0.8693 H   0  0  0  0  0  0
   -0.4443   -0.4971    0.8782 H   0  0  0  0  0  0
   -0.4437   -0.5021   -0.8773 H   0  0  0  0  0  0
    1.8667    0.5072   -0.8781 H   0  0  0  0  0  0
    1.8658    0.5119    0.8756 H   0  0  0  0  0  0
    1.6417   -1.9910    0.8840 H   0  0  0  0  0  0
    1.6445   -1.9946   -0.8744 H   0  0  0  0  0  0
    3.7270   -1.4758   -2.1385 H   0  0  0  0  0  0
    6.1922   -1.4197   -2.1384 H   0  0  0  0  0  0
    6.1912   -1.4477    2.1520 H   0  0  0  0  0  0
    3.7253   -1.5032    2.1504 H   0  0  0  0  0  0
    8.3007   -1.3767    1.0094 H   0  0  0  0  0  0
    8.2622   -0.5010   -0.5269 H   0  0  0  0  0  0
    8.3042   -2.2627   -0.5214 H   0  0  0  0  0  0
  1  2  1  0  0  0
  1 13  1  0  0  0
  1 14  1  0  0  0
  1 15  1  0  0  0
  2  3  1  0  0  0
  2 16  1  0  0  0
  2 17  1  0  0  0
  3  4  1  0  0  0
  3 18  1  0  0  0
  3 19  1  0  0  0
  4  5  1  0  0  0
  4 20  1  0  0  0
  4 21  1  0  0  0
  5  6  1  0  0  0
  5 22  1  0  0  0
  5 23  1  0  0  0
  6 11  1  0  0  0
  6  7  2  0  0  0
  7  8  1  0  0  0
  7 24  1  0  0  0
  8  9  2  0  0  0
  8 25  1  0  0  0
  9 10  1  0  0  0
  9 12  1  0  0  0
 10 11  2  0  0  0
 10 26  1  0  0  0
 11 27  1  0  0  0
 12 28  1  0  0  0
 12 29  1  0  0  0
 12 30  1  0  0  0
M  END
>  <i_m_Spin_multiplicity> (1)
1

>  <s_j_Task> (1)
Single Point

>  <s_j_QM_Method> (1)
DFT(b3lyp-d3)

>  <s_j_QM_Basis> (1)
cc-pvtz(-f)

>  <i_j_Number_of_canonical_orbitals> (1)
431

>  <i_j_Geometry_convergence_category> (1)
3

>  <r_j_Gas_Phase_Energy> (1)
-468.313322445906

>  <r_j_Final_Energy> (1)
-468.313322445906

>  <r_j_HOMO> (1)
-0.240737875418254

>  <r_j_LUMO> (1)
-0.0176809537636501

>  <r_j_Polarizability> (1)
142.578453482502

>  <r_j_QM_Dipole_(debye)> (1)
0.168483953161678

>  <r_j_QM_Dipole_X_(debye)> (1)
0.0127877608960156

>  <r_j_QM_Dipole_Y_(debye)> (1)
0.162125503111141

>  <r_j_QM_Dipole_Z_(debye)> (1)
-0.044029954408471

>  <r_j_Lowest_Frequency_(cm-1)> (1)
65.0176311531329

>  <r_j_Highest_Frequency_(cm-1)> (1)
3125.67653393633

>  <r_j_2nd_Lowest_Frequency_(cm-1)> (1)
65.639671250893

>  <i_j_Num_Negative_Frequencies> (1)
0

>  <r_j_Zero_Point_Energy_(kcal/mol)> (1)
168.784595596411

>  <r_j_Entropy_(cal/mol/K)_298.15K_1.00E+00atm> (1)
107.460042641198

>  <r_j_Enthalpy_(kcal/mol)_298.15K_1.00E+00atm> (1)
8.27752364907249

>  <r_j_Free_Energy_(kcal/mol)_298.15K_1.00E+00atm> (1)
-23.7616880644008

>  <r_j_Internal_Energy_(kcal/mol)_298.15K_1.00E+00atm> (1)
7.68503806024522

>  <r_j_Heat_Capacity_(cal/mol/K)_298.15K_1.00E+00atm> (1)
47.6732625503492

>  <r_j_ln(Q)_298.15K_1.00E+00atm> (1)
40.1050903388774

>  <r_j_Total_Internal_Energy_(au)_298.15K_1.00E+00atm> (1)
-468.03210018219

>  <r_j_Total_Enthalpy_(au)_298.15K_1.00E+00atm> (1)
-468.031155996298

>  <r_j_Total_Free_Energy_(au)_298.15K_1.00E+00atm> (1)
-468.082213730476

>  <r_lp_tautomer_probability> (1)
1

>  <r_epik_Ionization_Penalty> (1)
  0.0000

>  <r_epik_Ionization_Penalty_Charging> (1)
  0.0000

>  <r_epik_Ionization_Penalty_Neutral> (1)
  0.0000

>  <r_epik_State_Penalty> (1)
  0.0000

>  <r_epik_Charging_Adjusted_Penalty> (1)
0

>  <i_epik_Tot_Q> (1)
0

>  <i_epik_Tot_abs_Q> (1)
0

>  <s_lp_Force_Field> (1)
S-OPLS

>  <r_lp_Energy> (1)
7.94568

>  <b_lp_Chiralities_Consistent> (1)
1

$$$$
