524749_2,4-dimethylnonane
                    3D
 Schrodinger Suite 2021-3.
 35 34  0  0  1  0            999 V2000
   -4.1935    2.9788    0.1013 C   0  0  0  0  0  0
   -2.6719    2.9503   -0.0705 C   0  0  0  0  0  0
   -2.0828    1.5378    0.0227 C   0  0  0  0  0  0
   -0.5587    1.5025   -0.1395 C   0  0  0  0  0  0
    0.0199    0.0834   -0.0667 C   0  0  0  0  0  0
    1.5584    0.0069   -0.0599 C   0  0  0  0  0  0
    2.1732    0.6637   -1.3062 C   0  0  0  0  0  0
    2.0636   -1.4466    0.0550 C   0  0  0  0  0  0
    1.5809   -2.2718    1.2644 C   0  0  0  0  0  0
    1.8907   -1.5831    2.6009 C   0  0  0  0  0  0
    2.2044   -3.6747    1.2235 C   0  0  0  0  0  0
   -4.5886    3.9975    0.0290 H   0  0  0  0  0  0
   -4.4873    2.5754    1.0773 H   0  0  0  0  0  0
   -4.6881    2.3736   -0.6672 H   0  0  0  0  0  0
   -2.4025    3.3904   -1.0404 H   0  0  0  0  0  0
   -2.2032    3.5876    0.6919 H   0  0  0  0  0  0
   -2.3577    1.0928    0.9900 H   0  0  0  0  0  0
   -2.5457    0.9003   -0.7447 H   0  0  0  0  0  0
   -0.2932    1.9707   -1.0958 H   0  0  0  0  0  0
   -0.0965    2.1231    0.6423 H   0  0  0  0  0  0
   -0.3672   -0.3963    0.8412 H   0  0  0  0  0  0
   -0.3630   -0.5111   -0.9100 H   0  0  0  0  0  0
    1.9154    0.5656    0.8177 H   0  0  0  0  0  0
    1.7952    0.1898   -2.2209 H   0  0  0  0  0  0
    3.2638    0.5604   -1.3058 H   0  0  0  0  0  0
    1.9436    1.7316   -1.3640 H   0  0  0  0  0  0
    1.7877   -1.9826   -0.8654 H   0  0  0  0  0  0
    3.1634   -1.4278    0.0734 H   0  0  0  0  0  0
    0.4915   -2.3938    1.1898 H   0  0  0  0  0  0
    2.9668   -1.3922    2.6974 H   0  0  0  0  0  0
    1.5873   -2.2107    3.4459 H   0  0  0  0  0  0
    1.3726   -0.6241    2.6986 H   0  0  0  0  0  0
    3.2965   -3.6178    1.3136 H   0  0  0  0  0  0
    1.9751   -4.1871    0.2826 H   0  0  0  0  0  0
    1.8354   -4.2981    2.0451 H   0  0  0  0  0  0
  1  2  1  0  0  0
  1 12  1  0  0  0
  1 13  1  0  0  0
  1 14  1  0  0  0
  2  3  1  0  0  0
  2 15  1  0  0  0
  2 16  1  0  0  0
  3  4  1  0  0  0
  3 17  1  0  0  0
  3 18  1  0  0  0
  4  5  1  0  0  0
  4 19  1  0  0  0
  4 20  1  0  0  0
  5  6  1  0  0  0
  5 21  1  0  0  0
  5 22  1  0  0  0
  6  7  1  0  0  0
  6  8  1  0  0  0
  6 23  1  0  0  0
  7 24  1  0  0  0
  7 25  1  0  0  0
  7 26  1  0  0  0
  8  9  1  0  0  0
  8 27  1  0  0  0
  8 28  1  0  0  0
  9 10  1  0  0  0
  9 11  1  0  0  0
  9 29  1  0  0  0
 10 30  1  0  0  0
 10 31  1  0  0  0
 10 32  1  0  0  0
 11 33  1  0  0  0
 11 34  1  0  0  0
 11 35  1  0  0  0
M  END
>  <i_m_Spin_multiplicity> (1)
1

>  <s_j_Task> (1)
Single Point

>  <s_j_QM_Method> (1)
DFT(b3lyp-d3)

>  <s_j_QM_Basis> (1)
cc-pvtz(-f)

>  <i_j_Number_of_canonical_orbitals> (1)
465

>  <i_j_Geometry_convergence_category> (1)
1

>  <r_j_Gas_Phase_Energy> (1)
-433.829872488315

>  <r_j_Final_Energy> (1)
-433.829872488315

>  <r_j_HOMO> (1)
-0.296922713791662

>  <r_j_LUMO> (1)
0.0141877692645952

>  <r_j_Polarizability> (1)
135.963147694875

>  <r_j_QM_Dipole_(debye)> (1)
0.106567781240902

>  <r_j_QM_Dipole_X_(debye)> (1)
-0.0688428705199355

>  <r_j_QM_Dipole_Y_(debye)> (1)
0.0693528840290313

>  <r_j_QM_Dipole_Z_(debye)> (1)
0.042515040327393

>  <r_j_Lowest_Frequency_(cm-1)> (1)
66.3660529018549

>  <r_j_Highest_Frequency_(cm-1)> (1)
3055.72639776229

>  <r_j_2nd_Lowest_Frequency_(cm-1)> (1)
87.679297585067

>  <i_j_Num_Negative_Frequencies> (1)
0

>  <r_j_Zero_Point_Energy_(kcal/mol)> (1)
207.391350198203

>  <r_j_Entropy_(cal/mol/K)_298.15K_1.00E+00atm> (1)
113.549741760105

>  <r_j_Enthalpy_(kcal/mol)_298.15K_1.00E+00atm> (1)
9.27881128520957

>  <r_j_Free_Energy_(kcal/mol)_298.15K_1.00E+00atm> (1)
-24.5760442205657

>  <r_j_Internal_Energy_(kcal/mol)_298.15K_1.00E+00atm> (1)
8.68632569638229

>  <r_j_Heat_Capacity_(cal/mol/K)_298.15K_1.00E+00atm> (1)
53.3729395984348

>  <r_j_ln(Q)_298.15K_1.00E+00atm> (1)
41.4795645396369

>  <r_j_Total_Internal_Energy_(au)_298.15K_1.00E+00atm> (1)
-433.485530791138

>  <r_j_Total_Enthalpy_(au)_298.15K_1.00E+00atm> (1)
-433.484586605245

>  <r_j_Total_Free_Energy_(au)_298.15K_1.00E+00atm> (1)
-433.538537752

>  <r_lp_tautomer_probability> (1)
1

>  <r_epik_Ionization_Penalty> (1)
  0.0000

>  <r_epik_Ionization_Penalty_Charging> (1)
  0.0000

>  <r_epik_Ionization_Penalty_Neutral> (1)
  0.0000

>  <r_epik_State_Penalty> (1)
  0.0000

>  <r_epik_Charging_Adjusted_Penalty> (1)
0

>  <i_epik_Tot_Q> (1)
0

>  <i_epik_Tot_abs_Q> (1)
0

>  <s_lp_Force_Field> (1)
S-OPLS

>  <r_lp_Energy> (1)
5.993472

>  <b_lp_Chiralities_Consistent> (1)
1

$$$$
