524975_4-propyl syringol
                    3D
 Schrodinger Suite 2021-3.
 30 30  0  0  1  0            999 V2000
   -2.1545    1.4868   -0.0083 C   0  0  0  0  0  0
   -0.6248    1.4322   -0.0026 C   0  0  0  0  0  0
   -0.0772   -0.0086   -0.0068 C   0  0  0  0  0  0
    1.4348   -0.0559    0.0021 C   0  0  0  0  0  0
    2.1490   -0.0431   -1.2010 C   0  0  0  0  0  0
    3.5487   -0.0187   -1.2092 C   0  0  0  0  0  0
    4.2491   -0.0072    0.0061 C   0  0  0  0  0  0
    3.5273   -0.0209    1.2078 C   0  0  0  0  0  0
    2.1324   -0.0457    1.2145 C   0  0  0  0  0  0
    4.3357   -0.0116    2.3238 O   0  0  0  0  0  0
    3.7165   -0.0123    3.6002 C   0  0  0  0  0  0
    5.6127    0.0124    0.0021 O   0  0  0  0  0  0
    4.3282   -0.0081   -2.3295 O   0  0  0  0  0  0
    3.6799   -0.0109   -3.5893 C   0  0  0  0  0  0
   -2.5193    2.5191   -0.0053 H   0  0  0  0  0  0
   -2.5710    0.9829    0.8717 H   0  0  0  0  0  0
   -2.5640    0.9905   -0.8959 H   0  0  0  0  0  0
   -0.2249    1.9644   -0.8749 H   0  0  0  0  0  0
   -0.2324    1.9564    0.8781 H   0  0  0  0  0  0
   -0.4729   -0.5429    0.8669 H   0  0  0  0  0  0
   -0.4625   -0.5345   -0.8900 H   0  0  0  0  0  0
    1.6011   -0.0509   -2.1361 H   0  0  0  0  0  0
    1.5835   -0.0551    2.1492 H   0  0  0  0  0  0
    4.5261    0.0020    4.3319 H   0  0  0  0  0  0
    3.1077   -0.9132    3.7509 H   0  0  0  0  0  0
    3.0850    0.8745    3.7406 H   0  0  0  0  0  0
    5.8883    0.0159    0.9314 H   0  0  0  0  0  0
    4.4756    0.0039   -4.3361 H   0  0  0  0  0  0
    3.0436    0.8747   -3.7232 H   0  0  0  0  0  0
    3.0687   -0.9125   -3.7322 H   0  0  0  0  0  0
  1  2  1  0  0  0
  1 15  1  0  0  0
  1 16  1  0  0  0
  1 17  1  0  0  0
  2  3  1  0  0  0
  2 18  1  0  0  0
  2 19  1  0  0  0
  3  4  1  0  0  0
  3 20  1  0  0  0
  3 21  1  0  0  0
  4  9  1  0  0  0
  4  5  2  0  0  0
  5  6  1  0  0  0
  5 22  1  0  0  0
  6  7  2  0  0  0
  6 13  1  0  0  0
  7  8  1  0  0  0
  7 12  1  0  0  0
  8  9  2  0  0  0
  8 10  1  0  0  0
  9 23  1  0  0  0
 10 11  1  0  0  0
 11 24  1  0  0  0
 11 25  1  0  0  0
 11 26  1  0  0  0
 12 27  1  0  0  0
 13 14  1  0  0  0
 14 28  1  0  0  0
 14 29  1  0  0  0
 14 30  1  0  0  0
M  END
>  <i_m_Spin_multiplicity> (1)
1

>  <s_j_Task> (1)
Single Point

>  <s_j_QM_Method> (1)
DFT(b3lyp-d3)

>  <s_j_QM_Basis> (1)
cc-pvtz(-f)

>  <i_j_Number_of_canonical_orbitals> (1)
459

>  <i_j_Geometry_convergence_category> (1)
3

>  <r_j_Gas_Phase_Energy> (1)
-654.701188436826

>  <r_j_Final_Energy> (1)
-654.701188436826

>  <r_j_HOMO> (1)
-0.197984235707082

>  <r_j_LUMO> (1)
0.00683512435877395

>  <r_j_Polarizability> (1)
145.992166055333

>  <r_j_QM_Dipole_(debye)> (1)
2.20882580503429

>  <r_j_QM_Dipole_X_(debye)> (1)
-1.72665715588084

>  <r_j_QM_Dipole_Y_(debye)> (1)
0.106845530405505

>  <r_j_QM_Dipole_Z_(debye)> (1)
1.3733719582339

>  <r_j_Lowest_Frequency_(cm-1)> (1)
61.9393708569662

>  <r_j_Highest_Frequency_(cm-1)> (1)
3722.6810332791

>  <r_j_2nd_Lowest_Frequency_(cm-1)> (1)
69.4625210379391

>  <i_j_Num_Negative_Frequencies> (1)
0

>  <r_j_Zero_Point_Energy_(kcal/mol)> (1)
159.487910683059

>  <r_j_Entropy_(cal/mol/K)_298.15K_1.00E+00atm> (1)
116.098524422333

>  <r_j_Enthalpy_(kcal/mol)_298.15K_1.00E+00atm> (1)
9.50614451160735

>  <r_j_Free_Energy_(kcal/mol)_298.15K_1.00E+00atm> (1)
-25.1086305449114

>  <r_j_Internal_Energy_(kcal/mol)_298.15K_1.00E+00atm> (1)
8.91365892278007

>  <r_j_Heat_Capacity_(cal/mol/K)_298.15K_1.00E+00atm> (1)
54.6880999106354

>  <r_j_ln(Q)_298.15K_1.00E+00atm> (1)
42.3784662756265

>  <r_j_Total_Internal_Energy_(au)_298.15K_1.00E+00atm> (1)
-654.432823451663

>  <r_j_Total_Enthalpy_(au)_298.15K_1.00E+00atm> (1)
-654.431879265771

>  <r_j_Total_Free_Energy_(au)_298.15K_1.00E+00atm> (1)
-654.487041421422

>  <r_lp_tautomer_probability> (1)
0.99999999999482

>  <r_epik_Ionization_Penalty> (1)
  0.0004

>  <r_epik_Ionization_Penalty_Charging> (1)
  0.0000

>  <r_epik_Ionization_Penalty_Neutral> (1)
  0.0004

>  <r_epik_State_Penalty> (1)
  0.0003

>  <r_epik_Charging_Adjusted_Penalty> (1)
0.000275476837645506

>  <i_epik_Tot_Q> (1)
0

>  <i_epik_Tot_abs_Q> (1)
0

>  <s_lp_Force_Field> (1)
S-OPLS

>  <r_lp_Energy> (1)
18.065959

>  <b_lp_Chiralities_Consistent> (1)
1

$$$$
