5281_Stearic acid
                    3D
 Schrodinger Suite 2021-3.
 55 54  0  0  1  0            999 V2000
   -2.2756    8.8359    3.3486 C   0  0  0  0  0  0
   -2.7381    7.8828    2.2425 C   0  0  0  0  0  0
   -2.1884    6.4604    2.4034 C   0  0  0  0  0  0
   -2.6482    5.5026    1.2986 C   0  0  0  0  0  0
   -2.0956    4.0803    1.4474 C   0  0  0  0  0  0
   -2.5572    3.1391    0.3269 C   0  0  0  0  0  0
   -2.0764    1.6871    0.4696 C   0  0  0  0  0  0
   -0.5538    1.5094    0.3937 C   0  0  0  0  0  0
   -0.1189    0.0393    0.3703 C   0  0  0  0  0  0
    1.4040   -0.1397    0.3140 C   0  0  0  0  0  0
    1.8704   -1.6040    0.2923 C   0  0  0  0  0  0
    1.4749   -2.3720   -0.9781 C   0  0  0  0  0  0
    2.0781   -3.7822   -1.0721 C   0  0  0  0  0  0
    1.5978   -4.7605    0.0082 C   0  0  0  0  0  0
    2.1410   -6.1844   -0.1702 C   0  0  0  0  0  0
    1.6873   -7.1592    0.9224 C   0  0  0  0  0  0
    2.2234   -8.5823    0.7685 C   0  0  0  0  0  0
    1.9549   -9.5026    2.0246 C   0  0  0  0  0  0
    1.9000  -10.7312    1.7771 O   0  0  0  0  0  0
    1.8622   -8.8971    3.1248 O   0  5  0  0  0  0
   -2.6806    9.8440    3.2089 H   0  0  0  0  0  0
   -1.1824    8.9151    3.3684 H   0  0  0  0  0  0
   -2.5970    8.4806    4.3346 H   0  0  0  0  0  0
   -3.8361    7.8456    2.2242 H   0  0  0  0  0  0
   -2.4325    8.2788    1.2642 H   0  0  0  0  0  0
   -1.0895    6.4961    2.4208 H   0  0  0  0  0  0
   -2.4926    6.0618    3.3821 H   0  0  0  0  0  0
   -3.7472    5.4666    1.2840 H   0  0  0  0  0  0
   -2.3472    5.9069    0.3211 H   0  0  0  0  0  0
   -0.9990    4.1236    1.4708 H   0  0  0  0  0  0
   -2.4042    3.6672    2.4187 H   0  0  0  0  0  0
   -3.6555    3.1500    0.2878 H   0  0  0  0  0  0
   -2.2159    3.5381   -0.6396 H   0  0  0  0  0  0
   -2.4428    1.2727    1.4198 H   0  0  0  0  0  0
   -2.5415    1.0834   -0.3216 H   0  0  0  0  0  0
   -0.1762    2.0125   -0.5091 H   0  0  0  0  0  0
   -0.0745    2.0132    1.2438 H   0  0  0  0  0  0
   -0.5097   -0.4735    1.2609 H   0  0  0  0  0  0
   -0.5848   -0.4551   -0.4916 H   0  0  0  0  0  0
    1.7943    0.3784   -0.5750 H   0  0  0  0  0  0
    1.8496    0.3684    1.1809 H   0  0  0  0  0  0
    2.9646   -1.6296    0.3894 H   0  0  0  0  0  0
    1.4768   -2.1209    1.1766 H   0  0  0  0  0  0
    0.3810   -2.4520   -1.0383 H   0  0  0  0  0  0
    1.7866   -1.7829   -1.8538 H   0  0  0  0  0  0
    1.8398   -4.2025   -2.0593 H   0  0  0  0  0  0
    3.1752   -3.7094   -1.0333 H   0  0  0  0  0  0
    1.8873   -4.3953    1.0027 H   0  0  0  0  0  0
    0.4975   -4.7877    0.0061 H   0  0  0  0  0  0
    1.8383   -6.5622   -1.1594 H   0  0  0  0  0  0
    3.2412   -6.1481   -0.1899 H   0  0  0  0  0  0
    1.9959   -6.8059    1.9135 H   0  0  0  0  0  0
    0.5872   -7.1845    0.9490 H   0  0  0  0  0  0
    1.8140   -9.0719   -0.1251 H   0  0  0  0  0  0
    3.3156   -8.5417    0.6218 H   0  0  0  0  0  0
  1  2  1  0  0  0
  1 21  1  0  0  0
  1 22  1  0  0  0
  1 23  1  0  0  0
  2  3  1  0  0  0
  2 24  1  0  0  0
  2 25  1  0  0  0
  3  4  1  0  0  0
  3 26  1  0  0  0
  3 27  1  0  0  0
  4  5  1  0  0  0
  4 28  1  0  0  0
  4 29  1  0  0  0
  5  6  1  0  0  0
  5 30  1  0  0  0
  5 31  1  0  0  0
  6  7  1  0  0  0
  6 32  1  0  0  0
  6 33  1  0  0  0
  7  8  1  0  0  0
  7 34  1  0  0  0
  7 35  1  0  0  0
  8  9  1  0  0  0
  8 36  1  0  0  0
  8 37  1  0  0  0
  9 10  1  0  0  0
  9 38  1  0  0  0
  9 39  1  0  0  0
 10 11  1  0  0  0
 10 40  1  0  0  0
 10 41  1  0  0  0
 11 12  1  0  0  0
 11 42  1  0  0  0
 11 43  1  0  0  0
 12 13  1  0  0  0
 12 44  1  0  0  0
 12 45  1  0  0  0
 13 14  1  0  0  0
 13 46  1  0  0  0
 13 47  1  0  0  0
 14 15  1  0  0  0
 14 48  1  0  0  0
 14 49  1  0  0  0
 15 16  1  0  0  0
 15 50  1  0  0  0
 15 51  1  0  0  0
 16 17  1  0  0  0
 16 52  1  0  0  0
 16 53  1  0  0  0
 17 18  1  0  0  0
 17 54  1  0  0  0
 17 55  1  0  0  0
 18 19  2  0  0  0
 18 20  1  0  0  0
M  END
>  <s_lp_Force_Field> (1)
S-OPLS

>  <r_lp_Energy> (1)
12.706681

>  <b_lp_Chiralities_Consistent> (1)
1

>  <r_epik_Ionization_Penalty> (1)
  0.0049

>  <r_epik_Ionization_Penalty_Charging> (1)
  0.0049

>  <r_epik_Ionization_Penalty_Neutral> (1)
  0.0000

>  <r_epik_State_Penalty> (1)
  0.0035

>  <r_epik_Charging_Adjusted_Penalty> (1)
0.00839777765143097

>  <i_epik_Tot_Q> (1)
-1

>  <i_epik_Tot_abs_Q> (1)
1

>  <i_m_Spin_multiplicity> (1)
1

>  <s_j_Task> (1)
Single Point

>  <s_j_QM_Method> (1)
DFT(b3lyp-d3)

>  <s_j_QM_Basis> (1)
6-31g**

>  <i_j_Number_of_canonical_orbitals> (1)
475

>  <i_j_Geometry_convergence_category> (1)
1

>  <r_j_Gas_Phase_Energy> (1)
-857.616524599916

>  <r_j_Final_Energy> (1)
-857.616524599916

>  <r_j_HOMO> (1)
-0.00477006891664555

>  <r_j_LUMO> (1)
0.127091014542162

>  <r_j_Polarizability> (1)
205.959174568236

>  <r_j_QM_Dipole_(debye)> (1)
39.6140511259213

>  <r_j_QM_Dipole_X_(debye)> (1)
-8.02504975592801

>  <r_j_QM_Dipole_Y_(debye)> (1)
38.35088674172

>  <r_j_QM_Dipole_Z_(debye)> (1)
-5.83790280372603

>  <r_j_Lowest_Frequency_(cm-1)> (1)
-11.3629712470326

>  <r_j_Highest_Frequency_(cm-1)> (1)
3103.86415777501

>  <r_j_2nd_Lowest_Frequency_(cm-1)> (1)
17.3701841738988

>  <i_j_Num_Negative_Frequencies> (1)
1

>  <r_j_Zero_Point_Energy_(kcal/mol)> (1)
318.298118314579

>  <r_j_Entropy_(cal/mol/K)_298.15K_1.00E+00atm> (1)
160.926165816015

>  <r_j_Enthalpy_(kcal/mol)_298.15K_1.00E+00atm> (1)
15.2257408561508

>  <r_j_Free_Energy_(kcal/mol)_298.15K_1.00E+00atm> (1)
-32.7543954818941

>  <r_j_Internal_Energy_(kcal/mol)_298.15K_1.00E+00atm> (1)
14.6332552673235

>  <r_j_Heat_Capacity_(cal/mol/K)_298.15K_1.00E+00atm> (1)
87.3734058845936

>  <r_j_ln(Q)_298.15K_1.00E+00atm> (1)
55.2830247681228

>  <r_j_Total_Internal_Energy_(au)_298.15K_1.00E+00atm> (1)
-857.085964680905

>  <r_j_Total_Enthalpy_(au)_298.15K_1.00E+00atm> (1)
-857.085020495012

>  <r_j_Total_Free_Energy_(au)_298.15K_1.00E+00atm> (1)
-857.161481709754

$$$$
