5282604_20-Methyldocosanoic acid
                    3D
 Schrodinger Suite 2021-3.
 70 69  0  0  1  0            999 V2000
   -6.9528    8.1090    1.1917 C   0  0  0  0  0  0
   -6.5188    6.6412    1.2751 C   0  0  0  0  0  0
   -6.7785    5.8185   -0.0029 C   0  0  0  0  0  0
   -8.2759    5.7514   -0.3419 C   0  0  0  0  0  0
   -6.1959    4.3945    0.1061 C   0  0  0  0  0  0
   -4.6661    4.3188    0.1855 C   0  0  0  0  0  0
   -4.1297    2.8824    0.2131 C   0  0  0  0  0  0
   -2.5992    2.8173    0.2618 C   0  0  0  0  0  0
   -2.0383    1.3914    0.3065 C   0  0  0  0  0  0
   -0.5060    1.3531    0.3004 C   0  0  0  0  0  0
    0.0827   -0.0616    0.3446 C   0  0  0  0  0  0
    1.6132   -0.0724    0.2566 C   0  0  0  0  0  0
    2.2197   -1.4814    0.2717 C   0  0  0  0  0  0
    3.7535   -1.5099    0.1655 C   0  0  0  0  0  0
    4.2965   -0.9277   -1.1465 C   0  0  0  0  0  0
    5.8095   -1.1127   -1.3245 C   0  0  0  0  0  0
    6.3767   -0.4160   -2.5728 C   0  0  0  0  0  0
    5.8064   -0.9293   -3.9016 C   0  0  0  0  0  0
    6.3984   -0.2451   -5.1396 C   0  0  0  0  0  0
    5.7809   -0.7347   -6.4561 C   0  0  0  0  0  0
    6.3220   -0.0298   -7.7053 C   0  0  0  0  0  0
    5.6899   -0.5090   -9.0115 C   0  0  0  0  0  0
    6.2196    0.2229  -10.3060 C   0  0  0  0  0  0
    5.6889   -0.1682  -11.3739 O   0  0  0  0  0  0
    7.1005    1.1008  -10.1140 O   0  5  0  0  0  0
   -6.6587    8.6564    2.0933 H   0  0  0  0  0  0
   -8.0370    8.2127    1.0850 H   0  0  0  0  0  0
   -6.4858    8.6073    0.3341 H   0  0  0  0  0  0
   -5.4490    6.6108    1.5106 H   0  0  0  0  0  0
   -7.0299    6.1524    2.1174 H   0  0  0  0  0  0
   -6.2652    6.3251   -0.8357 H   0  0  0  0  0  0
   -8.8364    5.2795    0.4751 H   0  0  0  0  0  0
   -8.4472    5.1590   -1.2471 H   0  0  0  0  0  0
   -8.7057    6.7429   -0.5119 H   0  0  0  0  0  0
   -6.6350    3.8949    0.9829 H   0  0  0  0  0  0
   -6.5261    3.8137   -0.7663 H   0  0  0  0  0  0
   -4.2348    4.8493   -0.6755 H   0  0  0  0  0  0
   -4.3041    4.8452    1.0778 H   0  0  0  0  0  0
   -4.5478    2.3536    1.0819 H   0  0  0  0  0  0
   -4.4890    2.3403   -0.6732 H   0  0  0  0  0  0
   -2.1894    3.3382   -0.6153 H   0  0  0  0  0  0
   -2.2393    3.3753    1.1383 H   0  0  0  0  0  0
   -2.4172    0.8765    1.2013 H   0  0  0  0  0  0
   -2.4185    0.8231   -0.5543 H   0  0  0  0  0  0
   -0.1394    1.8660   -0.6001 H   0  0  0  0  0  0
   -0.1235    1.9326    1.1533 H   0  0  0  0  0  0
   -0.2410   -0.5668    1.2663 H   0  0  0  0  0  0
   -0.3301   -0.6521   -0.4859 H   0  0  0  0  0  0
    1.9126    0.4482   -0.6615 H   0  0  0  0  0  0
    2.0333    0.5128    1.0880 H   0  0  0  0  0  0
    1.9087   -1.9941    1.1927 H   0  0  0  0  0  0
    1.7938   -2.0629   -0.5588 H   0  0  0  0  0  0
    4.1906   -0.9667    1.0163 H   0  0  0  0  0  0
    4.0956   -2.5496    0.2618 H   0  0  0  0  0  0
    3.7664   -1.3962   -1.9854 H   0  0  0  0  0  0
    4.0659    0.1443   -1.2039 H   0  0  0  0  0  0
    6.3227   -0.7290   -0.4308 H   0  0  0  0  0  0
    6.0386   -2.1875   -1.3694 H   0  0  0  0  0  0
    6.1908    0.6654   -2.4955 H   0  0  0  0  0  0
    7.4690   -0.5337   -2.5837 H   0  0  0  0  0  0
    5.9703   -2.0154   -3.9695 H   0  0  0  0  0  0
    4.7174   -0.7887   -3.9162 H   0  0  0  0  0  0
    6.2535    0.8421   -5.0555 H   0  0  0  0  0  0
    7.4868   -0.4019   -5.1633 H   0  0  0  0  0  0
    5.9416   -1.8205   -6.5456 H   0  0  0  0  0  0
    4.6887   -0.6011   -6.4069 H   0  0  0  0  0  0
    6.1720    1.0541   -7.6209 H   0  0  0  0  0  0
    7.4099   -0.1573   -7.7725 H   0  0  0  0  0  0
    5.8537   -1.5895   -9.1437 H   0  0  0  0  0  0
    4.5969   -0.3828   -8.9775 H   0  0  0  0  0  0
  1  2  1  0  0  0
  1 26  1  0  0  0
  1 27  1  0  0  0
  1 28  1  0  0  0
  2  3  1  0  0  0
  2 29  1  0  0  0
  2 30  1  0  0  0
  3  4  1  0  0  0
  3  5  1  0  0  0
  3 31  1  0  0  0
  4 32  1  0  0  0
  4 33  1  0  0  0
  4 34  1  0  0  0
  5  6  1  0  0  0
  5 35  1  0  0  0
  5 36  1  0  0  0
  6  7  1  0  0  0
  6 37  1  0  0  0
  6 38  1  0  0  0
  7  8  1  0  0  0
  7 39  1  0  0  0
  7 40  1  0  0  0
  8  9  1  0  0  0
  8 41  1  0  0  0
  8 42  1  0  0  0
  9 10  1  0  0  0
  9 43  1  0  0  0
  9 44  1  0  0  0
 10 11  1  0  0  0
 10 45  1  0  0  0
 10 46  1  0  0  0
 11 12  1  0  0  0
 11 47  1  0  0  0
 11 48  1  0  0  0
 12 13  1  0  0  0
 12 49  1  0  0  0
 12 50  1  0  0  0
 13 14  1  0  0  0
 13 51  1  0  0  0
 13 52  1  0  0  0
 14 15  1  0  0  0
 14 53  1  0  0  0
 14 54  1  0  0  0
 15 16  1  0  0  0
 15 55  1  0  0  0
 15 56  1  0  0  0
 16 17  1  0  0  0
 16 57  1  0  0  0
 16 58  1  0  0  0
 17 18  1  0  0  0
 17 59  1  0  0  0
 17 60  1  0  0  0
 18 19  1  0  0  0
 18 61  1  0  0  0
 18 62  1  0  0  0
 19 20  1  0  0  0
 19 63  1  0  0  0
 19 64  1  0  0  0
 20 21  1  0  0  0
 20 65  1  0  0  0
 20 66  1  0  0  0
 21 22  1  0  0  0
 21 67  1  0  0  0
 21 68  1  0  0  0
 22 23  1  0  0  0
 22 69  1  0  0  0
 22 70  1  0  0  0
 23 24  2  0  0  0
 23 25  1  0  0  0
M  END
>  <s_lp_Force_Field> (1)
S-OPLS

>  <r_lp_Energy> (1)
16.3388

>  <b_lp_Chiralities_Consistent> (1)
1

>  <r_epik_Ionization_Penalty> (1)
  0.0049

>  <r_epik_Ionization_Penalty_Charging> (1)
  0.0049

>  <r_epik_Ionization_Penalty_Neutral> (1)
  0.0000

>  <r_epik_State_Penalty> (1)
  0.0035

>  <r_epik_Charging_Adjusted_Penalty> (1)
0.00839778

>  <i_epik_Tot_Q> (1)
-1

>  <i_epik_Tot_abs_Q> (1)
1

>  <i_m_Spin_multiplicity> (1)
1

>  <s_j_Task> (1)
Single Point

>  <s_j_QM_Method> (1)
DFT(b3lyp-d3)

>  <s_j_QM_Basis> (1)
6-31g**

>  <i_j_Number_of_canonical_orbitals> (1)
600

>  <i_j_Geometry_convergence_category> (1)
3

>  <r_j_Gas_Phase_Energy> (1)
-1054.21264363965

>  <r_j_Final_Energy> (1)
-1054.21264363965

>  <r_j_HOMO> (1)
-0.00417405096741696

>  <r_j_LUMO> (1)
0.120279137327095

>  <r_j_Polarizability> (1)
260.6771694565

>  <r_j_QM_Dipole_(debye)> (1)
44.373617972298

>  <r_j_QM_Dipole_X_(debye)> (1)
-25.1657054677324

>  <r_j_QM_Dipole_Y_(debye)> (1)
5.2544563116242

>  <r_j_QM_Dipole_Z_(debye)> (1)
36.1676088390154

>  <r_j_Lowest_Frequency_(cm-1)> (1)
-7.05378405023644

>  <r_j_Highest_Frequency_(cm-1)> (1)
3119.60426499449

>  <r_j_2nd_Lowest_Frequency_(cm-1)> (1)
12.6893417062988

>  <i_j_Num_Negative_Frequencies> (1)
1

>  <r_j_Zero_Point_Energy_(kcal/mol)> (1)
407.871876620808

>  <r_j_Entropy_(cal/mol/K)_298.15K_1.00E+00atm> (1)
189.878352292269

>  <r_j_Enthalpy_(kcal/mol)_298.15K_1.00E+00atm> (1)
19.2737312250984

>  <r_j_Free_Energy_(kcal/mol)_298.15K_1.00E+00atm> (1)
-37.3384995108415

>  <r_j_Internal_Energy_(kcal/mol)_298.15K_1.00E+00atm> (1)
18.6812456362712

>  <r_j_Heat_Capacity_(cal/mol/K)_298.15K_1.00E+00atm> (1)
112.096913791808

>  <r_j_ln(Q)_298.15K_1.00E+00atm> (1)
63.0200973913083

>  <r_j_Total_Internal_Energy_(au)_298.15K_1.00E+00atm> (1)
-1053.53288796639

>  <r_j_Total_Enthalpy_(au)_298.15K_1.00E+00atm> (1)
-1053.53194378049

>  <r_j_Total_Free_Energy_(au)_298.15K_1.00E+00atm> (1)
-1053.62216111337

$$$$
