5282596_n-Hexatriacontanoic acid
                    3D
 Schrodinger Suite 2021-3.
109108  0  0  1  0            999 V2000
    1.7651    9.5539  -10.5731 C   0  0  0  0  0  0
    1.2484    9.5832   -9.1316 C   0  0  0  0  0  0
    0.1165    8.5805   -8.8750 C   0  0  0  0  0  0
   -0.3982    8.6081   -7.4316 C   0  0  0  0  0  0
   -1.5262    7.6070   -7.1545 C   0  0  0  0  0  0
   -2.0136    7.6453   -5.7015 C   0  0  0  0  0  0
   -3.1300    6.6418   -5.3882 C   0  0  0  0  0  0
   -3.5714    6.6864   -3.9205 C   0  0  0  0  0  0
   -4.6642    5.6729   -3.5602 C   0  0  0  0  0  0
   -5.0287    5.7121   -2.0700 C   0  0  0  0  0  0
   -6.1306    4.7318   -1.6420 C   0  0  0  0  0  0
   -5.7974    3.2549   -1.9033 C   0  0  0  0  0  0
   -6.7074    2.2937   -1.1260 C   0  0  0  0  0  0
   -6.5280    0.8105   -1.4869 C   0  0  0  0  0  0
   -5.0801    0.3086   -1.3944 C   0  0  0  0  0  0
   -4.9572   -1.2186   -1.4680 C   0  0  0  0  0  0
   -3.5120   -1.6947   -1.6585 C   0  0  0  0  0  0
   -3.3274   -3.2072   -1.4863 C   0  0  0  0  0  0
   -1.9382   -3.6950   -1.9162 C   0  0  0  0  0  0
   -1.6283   -5.1363   -1.4946 C   0  0  0  0  0  0
   -0.3302   -5.6775   -2.1074 C   0  0  0  0  0  0
    0.1633   -6.9770   -1.4605 C   0  0  0  0  0  0
    1.3604   -7.6017   -2.1893 C   0  0  0  0  0  0
    2.0826   -8.6766   -1.3694 C   0  0  0  0  0  0
    3.1812   -9.4118   -2.1543 C   0  0  0  0  0  0
    4.1942  -10.1465   -1.2577 C   0  0  0  0  0  0
    5.2173   -9.1967   -0.6196 C   0  0  0  0  0  0
    6.1853   -9.8626    0.3648 C   0  0  0  0  0  0
    7.2423   -8.8845    0.8918 C   0  0  0  0  0  0
    8.1870   -9.4679    1.9481 C   0  0  0  0  0  0
    9.2652   -8.4713    2.3917 C   0  0  0  0  0  0
   10.1702   -8.9772    3.5201 C   0  0  0  0  0  0
   11.2692   -7.9775    3.9068 C   0  0  0  0  0  0
   12.1481   -8.4210    5.0857 C   0  0  0  0  0  0
   11.4252   -8.5471    6.4286 C   0  0  0  0  0  0
   12.3996   -8.6090    7.6749 C   0  0  0  0  0  0
   11.9223   -9.1803    8.6848 O   0  0  0  0  0  0
   13.5161   -8.0495    7.5175 O   0  5  0  0  0  0
    2.5715   10.2787  -10.7268 H   0  0  0  0  0  0
    0.9646    9.7894  -11.2840 H   0  0  0  0  0  0
    2.1541    8.5624  -10.8321 H   0  0  0  0  0  0
    2.0766    9.3763   -8.4401 H   0  0  0  0  0  0
    0.8962   10.5950   -8.8874 H   0  0  0  0  0  0
   -0.7151    8.7862   -9.5645 H   0  0  0  0  0  0
    0.4672    7.5671   -9.1184 H   0  0  0  0  0  0
    0.4381    8.4074   -6.7465 H   0  0  0  0  0  0
   -0.7474    9.6226   -7.1909 H   0  0  0  0  0  0
   -2.3697    7.8088   -7.8303 H   0  0  0  0  0  0
   -1.1801    6.5918   -7.3963 H   0  0  0  0  0  0
   -1.1622    7.4553   -5.0322 H   0  0  0  0  0  0
   -2.3620    8.6607   -5.4630 H   0  0  0  0  0  0
   -3.9940    6.8368   -6.0395 H   0  0  0  0  0  0
   -2.7869    5.6267   -5.6345 H   0  0  0  0  0  0
   -2.6957    6.5096   -3.2792 H   0  0  0  0  0  0
   -3.9211    7.7002   -3.6772 H   0  0  0  0  0  0
   -5.5626    5.8646   -4.1648 H   0  0  0  0  0  0
   -4.3225    4.6656   -3.8325 H   0  0  0  0  0  0
   -4.1238    5.5051   -1.4802 H   0  0  0  0  0  0
   -5.3341    6.7338   -1.8050 H   0  0  0  0  0  0
   -6.3177    4.8690   -0.5680 H   0  0  0  0  0  0
   -7.0733    4.9866   -2.1470 H   0  0  0  0  0  0
   -5.8680    3.0385   -2.9779 H   0  0  0  0  0  0
   -4.7511    3.0700   -1.6257 H   0  0  0  0  0  0
   -6.5199    2.4284   -0.0510 H   0  0  0  0  0  0
   -7.7565    2.5776   -1.2876 H   0  0  0  0  0  0
   -7.1639    0.2064   -0.8253 H   0  0  0  0  0  0
   -6.8988    0.6337   -2.5066 H   0  0  0  0  0  0
   -4.4864    0.7572   -2.2019 H   0  0  0  0  0  0
   -4.6251    0.6597   -0.4567 H   0  0  0  0  0  0
   -5.3773   -1.6586   -0.5523 H   0  0  0  0  0  0
   -5.5731   -1.6006   -2.2949 H   0  0  0  0  0  0
   -3.1672   -1.3929   -2.6580 H   0  0  0  0  0  0
   -2.8561   -1.1735   -0.9465 H   0  0  0  0  0  0
   -3.5038   -3.4717   -0.4340 H   0  0  0  0  0  0
   -4.0936   -3.7441   -2.0639 H   0  0  0  0  0  0
   -1.8479   -3.6010   -3.0080 H   0  0  0  0  0  0
   -1.1700   -3.0309   -1.4946 H   0  0  0  0  0  0
   -1.5643   -5.1795   -0.3979 H   0  0  0  0  0  0
   -2.4636   -5.7948   -1.7729 H   0  0  0  0  0  0
   -0.4770   -5.8307   -3.1862 H   0  0  0  0  0  0
    0.4602   -4.9184   -2.0178 H   0  0  0  0  0  0
    0.4384   -6.7680   -0.4168 H   0  0  0  0  0  0
   -0.6572   -7.7073   -1.4138 H   0  0  0  0  0  0
    1.0238   -8.0227   -3.1476 H   0  0  0  0  0  0
    2.0834   -6.8138   -2.4457 H   0  0  0  0  0  0
    2.5143   -8.1992   -0.4800 H   0  0  0  0  0  0
    1.3568   -9.4105   -0.9911 H   0  0  0  0  0  0
    2.7074  -10.1164   -2.8504 H   0  0  0  0  0  0
    3.7256   -8.6910   -2.7817 H   0  0  0  0  0  0
    3.6574  -10.6987   -0.4729 H   0  0  0  0  0  0
    4.7318  -10.9018   -1.8462 H   0  0  0  0  0  0
    5.7945   -8.7152   -1.4224 H   0  0  0  0  0  0
    4.6949   -8.3817   -0.1001 H   0  0  0  0  0  0
    5.6181  -10.2840    1.2070 H   0  0  0  0  0  0
    6.6828  -10.7136   -0.1225 H   0  0  0  0  0  0
    7.8349   -8.5102    0.0439 H   0  0  0  0  0  0
    6.7371   -8.0035    1.3141 H   0  0  0  0  0  0
    7.6027   -9.7892    2.8221 H   0  0  0  0  0  0
    8.6666  -10.3758    1.5543 H   0  0  0  0  0  0
    9.8808   -8.1997    1.5206 H   0  0  0  0  0  0
    8.7794   -7.5388    2.7156 H   0  0  0  0  0  0
    9.5585   -9.2029    4.4026 H   0  0  0  0  0  0
   10.6350   -9.9290    3.2220 H   0  0  0  0  0  0
   11.8933   -7.7855    3.0186 H   0  0  0  0  0  0
   10.7958   -7.0152    4.1575 H   0  0  0  0  0  0
   12.6329   -9.3773    4.8354 H   0  0  0  0  0  0
   12.9651   -7.7085    5.2436 H   0  0  0  0  0  0
   10.7775   -7.6656    6.5719 H   0  0  0  0  0  0
   10.7638   -9.4213    6.4674 H   0  0  0  0  0  0
  1  2  1  0  0  0
  1 39  1  0  0  0
  1 40  1  0  0  0
  1 41  1  0  0  0
  2  3  1  0  0  0
  2 42  1  0  0  0
  2 43  1  0  0  0
  3  4  1  0  0  0
  3 44  1  0  0  0
  3 45  1  0  0  0
  4  5  1  0  0  0
  4 46  1  0  0  0
  4 47  1  0  0  0
  5  6  1  0  0  0
  5 48  1  0  0  0
  5 49  1  0  0  0
  6  7  1  0  0  0
  6 50  1  0  0  0
  6 51  1  0  0  0
  7  8  1  0  0  0
  7 52  1  0  0  0
  7 53  1  0  0  0
  8  9  1  0  0  0
  8 54  1  0  0  0
  8 55  1  0  0  0
  9 10  1  0  0  0
  9 56  1  0  0  0
  9 57  1  0  0  0
 10 11  1  0  0  0
 10 58  1  0  0  0
 10 59  1  0  0  0
 11 12  1  0  0  0
 11 60  1  0  0  0
 11 61  1  0  0  0
 12 13  1  0  0  0
 12 62  1  0  0  0
 12 63  1  0  0  0
 13 14  1  0  0  0
 13 64  1  0  0  0
 13 65  1  0  0  0
 14 15  1  0  0  0
 14 66  1  0  0  0
 14 67  1  0  0  0
 15 16  1  0  0  0
 15 68  1  0  0  0
 15 69  1  0  0  0
 16 17  1  0  0  0
 16 70  1  0  0  0
 16 71  1  0  0  0
 17 18  1  0  0  0
 17 72  1  0  0  0
 17 73  1  0  0  0
 18 19  1  0  0  0
 18 74  1  0  0  0
 18 75  1  0  0  0
 19 20  1  0  0  0
 19 76  1  0  0  0
 19 77  1  0  0  0
 20 21  1  0  0  0
 20 78  1  0  0  0
 20 79  1  0  0  0
 21 22  1  0  0  0
 21 80  1  0  0  0
 21 81  1  0  0  0
 22 23  1  0  0  0
 22 82  1  0  0  0
 22 83  1  0  0  0
 23 24  1  0  0  0
 23 84  1  0  0  0
 23 85  1  0  0  0
 24 25  1  0  0  0
 24 86  1  0  0  0
 24 87  1  0  0  0
 25 26  1  0  0  0
 25 88  1  0  0  0
 25 89  1  0  0  0
 26 27  1  0  0  0
 26 90  1  0  0  0
 26 91  1  0  0  0
 27 28  1  0  0  0
 27 92  1  0  0  0
 27 93  1  0  0  0
 28 29  1  0  0  0
 28 94  1  0  0  0
 28 95  1  0  0  0
 29 30  1  0  0  0
 29 96  1  0  0  0
 29 97  1  0  0  0
 30 31  1  0  0  0
 30 98  1  0  0  0
 30 99  1  0  0  0
 31 32  1  0  0  0
 31100  1  0  0  0
 31101  1  0  0  0
 32 33  1  0  0  0
 32102  1  0  0  0
 32103  1  0  0  0
 33 34  1  0  0  0
 33104  1  0  0  0
 33105  1  0  0  0
 34 35  1  0  0  0
 34106  1  0  0  0
 34107  1  0  0  0
 35 36  1  0  0  0
 35108  1  0  0  0
 35109  1  0  0  0
 36 37  2  0  0  0
 36 38  1  0  0  0
M  CHG  1  38  -1
M  END
> <i_m_Spin_multiplicity>
1

> <s_j_Task>
Single Point

> <s_j_QM_Method>
DFT(b3lyp-d3)

> <s_j_QM_Basis>
6-31g**

> <i_j_Number_of_canonical_orbitals>
925

> <i_j_Geometry_convergence_category>
4

> <r_j_Gas_Phase_Energy>
-1565.35768479252

> <r_j_Final_Energy>
-1565.35768479252

> <r_j_HOMO>
-0.0060561074198684

> <r_j_LUMO>
0.110354465762023

> <r_j_Polarizability>
406.983388678903

> <r_j_QM_Dipole_(debye)>
72.3154474243079

> <r_j_QM_Dipole_X_(debye)>
-50.6279906250115

> <r_j_QM_Dipole_Y_(debye)>
30.8942477803588

> <r_j_QM_Dipole_Z_(debye)>
-41.3748227251474

> <r_j_Lowest_Frequency_(cm-1)>
-14.8633982918026

> <r_j_Highest_Frequency_(cm-1)>
3106.6508095751

> <r_j_2nd_Lowest_Frequency_(cm-1)>
5.92819329291008

> <i_j_Num_Negative_Frequencies>
1

> <r_j_Zero_Point_Energy_(kcal/mol)>
642.083596409631

> <r_j_Entropy_(cal/mol/K)_298.15K_1.00E+00atm>
260.905680080264

> <r_j_Enthalpy_(kcal/mol)_298.15K_1.00E+00atm>
29.4471984329288

> <r_j_Free_Energy_(kcal/mol)_298.15K_1.00E+00atm>
-48.3418300830019

> <r_j_Internal_Energy_(kcal/mol)_298.15K_1.00E+00atm>
28.8547128441015

> <r_j_Heat_Capacity_(cal/mol/K)_298.15K_1.00E+00atm>
173.487833485409

> <r_j_ln(Q)_298.15K_1.00E+00atm>
81.5915711615644

> <r_j_Total_Internal_Energy_(au)_298.15K_1.00E+00atm>
-1564.2884765314

> <r_j_Total_Enthalpy_(au)_298.15K_1.00E+00atm>
-1564.28753234551

> <r_j_Total_Free_Energy_(au)_298.15K_1.00E+00atm>
-1564.41149705399

> <r_epik_Ionization_Penalty>
  0.0049

> <r_epik_Ionization_Penalty_Charging>
  0.0049

> <r_epik_Ionization_Penalty_Neutral>
  0.0000

> <r_epik_State_Penalty>
  0.0035

> <r_epik_Charging_Adjusted_Penalty>
0.00839777765143097

> <i_epik_Tot_Q>
-1

> <i_epik_Tot_abs_Q>
1

> <s_lp_Force_Field>
S-OPLS

> <r_lp_Energy>
22.72965

> <b_lp_Chiralities_Consistent>
1

$$$$
