5282601_16-Methyloctadecanoic acid
                    3D
 Schrodinger Suite 2021-3.
 58 57  0  0  1  0            999 V2000
   -7.0121    5.7584    0.2625 C   0  0  0  0  0  0
   -6.2841    4.4309    0.0244 C   0  0  0  0  0  0
   -4.7512    4.5427   -0.1021 C   0  0  0  0  0  0
   -4.3410    5.3986   -1.3103 C   0  0  0  0  0  0
   -4.1250    3.1355   -0.1582 C   0  0  0  0  0  0
   -2.5926    3.0907   -0.1074 C   0  0  0  0  0  0
   -2.0428    1.6606   -0.0487 C   0  0  0  0  0  0
   -0.5120    1.5901   -0.0140 C   0  0  0  0  0  0
    0.0244    0.1551    0.0324 C   0  0  0  0  0  0
    1.5544    0.0660    0.0558 C   0  0  0  0  0  0
    2.0722   -1.3764    0.0743 C   0  0  0  0  0  0
    3.6010   -1.4899    0.0776 C   0  0  0  0  0  0
    4.0933   -2.9412    0.0511 C   0  0  0  0  0  0
    5.6211   -3.0759    0.0227 C   0  0  0  0  0  0
    6.1216   -4.5300    0.0064 C   0  0  0  0  0  0
    5.7385   -5.3268   -1.2491 C   0  0  0  0  0  0
    6.3123   -6.7489   -1.2794 C   0  0  0  0  0  0
    5.9178   -7.5504   -2.5193 C   0  0  0  0  0  0
    6.5077   -9.0136   -2.5722 C   0  0  0  0  0  0
    6.1332   -9.6858   -3.5638 O   0  0  0  0  0  0
    7.2775   -9.3256   -1.6269 O   0  5  0  0  0  0
   -8.0815    5.5946    0.4324 H   0  0  0  0  0  0
   -6.9176    6.4379   -0.5903 H   0  0  0  0  0  0
   -6.6106    6.2736    1.1432 H   0  0  0  0  0  0
   -6.5162    3.7477    0.8524 H   0  0  0  0  0  0
   -6.6802    3.9518   -0.8827 H   0  0  0  0  0  0
   -4.3780    5.0383    0.8086 H   0  0  0  0  0  0
   -4.6917    4.9386   -2.2431 H   0  0  0  0  0  0
   -3.2548    5.5055   -1.3798 H   0  0  0  0  0  0
   -4.7622    6.4069   -1.2559 H   0  0  0  0  0  0
   -4.5175    2.5446    0.6816 H   0  0  0  0  0  0
   -4.4718    2.6277   -1.0709 H   0  0  0  0  0  0
   -2.1689    3.5969   -0.9842 H   0  0  0  0  0  0
   -2.2405    3.6534    0.7696 H   0  0  0  0  0  0
   -2.4498    1.1501    0.8361 H   0  0  0  0  0  0
   -2.4110    1.0961   -0.9175 H   0  0  0  0  0  0
   -0.1043    2.1023   -0.8976 H   0  0  0  0  0  0
   -0.1405    2.1484    0.8575 H   0  0  0  0  0  0
   -0.3826   -0.3562    0.9167 H   0  0  0  0  0  0
   -0.3557   -0.4001   -0.8372 H   0  0  0  0  0  0
    1.9620    0.5870   -0.8228 H   0  0  0  0  0  0
    1.9390    0.6062    0.9332 H   0  0  0  0  0  0
    1.6675   -1.8966    0.9546 H   0  0  0  0  0  0
    1.6747   -1.9122   -0.7996 H   0  0  0  0  0  0
    4.0056   -0.9538   -0.7935 H   0  0  0  0  0  0
    4.0049   -0.9765    0.9629 H   0  0  0  0  0  0
    3.7000   -3.4760    0.9283 H   0  0  0  0  0  0
    3.6648   -3.4438   -0.8246 H   0  0  0  0  0  0
    6.0092   -2.5513   -0.8632 H   0  0  0  0  0  0
    6.0386   -2.5503    0.8948 H   0  0  0  0  0  0
    7.2161   -4.5301    0.1022 H   0  0  0  0  0  0
    5.7430   -5.0533    0.8970 H   0  0  0  0  0  0
    4.6438   -5.3842   -1.3333 H   0  0  0  0  0  0
    6.0768   -4.7732   -2.1394 H   0  0  0  0  0  0
    7.4070   -6.7205   -1.2137 H   0  0  0  0  0  0
    5.9922   -7.3012   -0.3863 H   0  0  0  0  0  0
    4.8226   -7.6246   -2.5976 H   0  0  0  0  0  0
    6.2397   -7.0246   -3.4316 H   0  0  0  0  0  0
  1  2  1  0  0  0
  1 22  1  0  0  0
  1 23  1  0  0  0
  1 24  1  0  0  0
  2  3  1  0  0  0
  2 25  1  0  0  0
  2 26  1  0  0  0
  3  4  1  0  0  0
  3  5  1  0  0  0
  3 27  1  0  0  0
  4 28  1  0  0  0
  4 29  1  0  0  0
  4 30  1  0  0  0
  5  6  1  0  0  0
  5 31  1  0  0  0
  5 32  1  0  0  0
  6  7  1  0  0  0
  6 33  1  0  0  0
  6 34  1  0  0  0
  7  8  1  0  0  0
  7 35  1  0  0  0
  7 36  1  0  0  0
  8  9  1  0  0  0
  8 37  1  0  0  0
  8 38  1  0  0  0
  9 10  1  0  0  0
  9 39  1  0  0  0
  9 40  1  0  0  0
 10 11  1  0  0  0
 10 41  1  0  0  0
 10 42  1  0  0  0
 11 12  1  0  0  0
 11 43  1  0  0  0
 11 44  1  0  0  0
 12 13  1  0  0  0
 12 45  1  0  0  0
 12 46  1  0  0  0
 13 14  1  0  0  0
 13 47  1  0  0  0
 13 48  1  0  0  0
 14 15  1  0  0  0
 14 49  1  0  0  0
 14 50  1  0  0  0
 15 16  1  0  0  0
 15 51  1  0  0  0
 15 52  1  0  0  0
 16 17  1  0  0  0
 16 53  1  0  0  0
 16 54  1  0  0  0
 17 18  1  0  0  0
 17 55  1  0  0  0
 17 56  1  0  0  0
 18 19  1  0  0  0
 18 57  1  0  0  0
 18 58  1  0  0  0
 19 20  2  0  0  0
 19 21  1  0  0  0
M  END
>  <s_lp_Force_Field> (1)
S-OPLS

>  <r_lp_Energy> (1)
14.0055

>  <b_lp_Chiralities_Consistent> (1)
1

>  <r_epik_Ionization_Penalty> (1)
  0.0049

>  <r_epik_Ionization_Penalty_Charging> (1)
  0.0049

>  <r_epik_Ionization_Penalty_Neutral> (1)
  0.0000

>  <r_epik_State_Penalty> (1)
  0.0035

>  <r_epik_Charging_Adjusted_Penalty> (1)
0.00839778

>  <i_epik_Tot_Q> (1)
-1

>  <i_epik_Tot_abs_Q> (1)
1

>  <i_m_Spin_multiplicity> (1)
1

>  <s_j_Task> (1)
Single Point

>  <s_j_QM_Method> (1)
DFT(b3lyp-d3)

>  <s_j_QM_Basis> (1)
6-31g**

>  <i_j_Number_of_canonical_orbitals> (1)
500

>  <i_j_Geometry_convergence_category> (1)
3

>  <r_j_Gas_Phase_Energy> (1)
-896.936776334514

>  <r_j_Final_Energy> (1)
-896.936776334514

>  <r_j_HOMO> (1)
-0.00420731124650997

>  <r_j_LUMO> (1)
0.117981156079104

>  <r_j_Polarizability> (1)
217.192728730125

>  <r_j_QM_Dipole_(debye)> (1)
44.009251919232

>  <r_j_QM_Dipole_X_(debye)> (1)
-24.3719448332554

>  <r_j_QM_Dipole_Y_(debye)> (1)
35.6728673864418

>  <r_j_QM_Dipole_Z_(debye)> (1)
8.38266616086505

>  <r_j_Lowest_Frequency_(cm-1)> (1)
5.70038697366104

>  <r_j_Highest_Frequency_(cm-1)> (1)
3121.79745632535

>  <r_j_2nd_Lowest_Frequency_(cm-1)> (1)
10.2745459244251

>  <i_j_Num_Negative_Frequencies> (1)
0

>  <r_j_Zero_Point_Energy_(kcal/mol)> (1)
335.873943817178

>  <r_j_Entropy_(cal/mol/K)_298.15K_1.00E+00atm> (1)
171.300667916853

>  <r_j_Enthalpy_(kcal/mol)_298.15K_1.00E+00atm> (1)
16.6539594498052

>  <r_j_Free_Energy_(kcal/mol)_298.15K_1.00E+00atm> (1)
-34.4193346896044

>  <r_j_Internal_Energy_(kcal/mol)_298.15K_1.00E+00atm> (1)
16.061473860978

>  <r_j_Heat_Capacity_(cal/mol/K)_298.15K_1.00E+00atm> (1)
94.986098567453

>  <r_j_ln(Q)_298.15K_1.00E+00atm> (1)
58.0931170962852

>  <r_j_Total_Internal_Energy_(au)_298.15K_1.00E+00atm> (1)
-896.375931543314

>  <r_j_Total_Enthalpy_(au)_298.15K_1.00E+00atm> (1)
-896.374987357422

>  <r_j_Total_Free_Energy_(au)_298.15K_1.00E+00atm> (1)
-896.456377832914

$$$$
