528441_1-Decene, 8-ethyl
                    3D
 Schrodinger Suite 2021-3.
 36 35  0  0  1  0            999 V2000
   -2.2295   -0.7119   -1.2614 C   0  0  0  0  0  0
   -0.7262   -0.4533   -1.4122 C   0  0  0  0  0  0
   -0.0431    0.1183   -0.1510 C   0  0  0  0  0  0
   -0.4542    1.5870    0.0894 C   0  0  0  0  0  0
   -0.1560    2.1067    1.5004 C   0  0  0  0  0  0
    1.4913   -0.0198   -0.2417 C   0  0  0  0  0  0
    2.0281   -1.4424   -0.0373 C   0  0  0  0  0  0
    3.5555   -1.5208   -0.1441 C   0  0  0  0  0  0
    4.1156   -2.9282    0.0883 C   0  0  0  0  0  0
    5.6515   -2.9842   -0.0126 C   0  0  0  0  0  0
    6.2001   -4.3701    0.1828 C   0  0  0  0  0  0
    7.0288   -4.7420    1.1585 C   0  0  0  0  0  0
   -2.6519   -1.1304   -2.1809 H   0  0  0  0  0  0
   -2.7856    0.2032   -1.0340 H   0  0  0  0  0  0
   -2.4228   -1.4247   -0.4515 H   0  0  0  0  0  0
   -0.2405   -1.3952   -1.6934 H   0  0  0  0  0  0
   -0.5490    0.2376   -2.2489 H   0  0  0  0  0  0
   -0.3861   -0.4718    0.7145 H   0  0  0  0  0  0
    0.0516    2.2179   -0.6554 H   0  0  0  0  0  0
   -1.5278    1.7018   -0.0993 H   0  0  0  0  0  0
   -0.4763    3.1476    1.6133 H   0  0  0  0  0  0
    0.9117    2.0659    1.7389 H   0  0  0  0  0  0
   -0.6846    1.5119    2.2542 H   0  0  0  0  0  0
    1.8205    0.3606   -1.2202 H   0  0  0  0  0  0
    1.9650    0.6298    0.5048 H   0  0  0  0  0  0
    1.7129   -1.8063    0.9510 H   0  0  0  0  0  0
    1.5825   -2.1292   -0.7688 H   0  0  0  0  0  0
    3.8688   -1.1642   -1.1358 H   0  0  0  0  0  0
    4.0057   -0.8283    0.5816 H   0  0  0  0  0  0
    3.8084   -3.2911    1.0780 H   0  0  0  0  0  0
    3.6765   -3.6233   -0.6413 H   0  0  0  0  0  0
    5.9493   -2.6095   -1.0036 H   0  0  0  0  0  0
    6.0934   -2.3013    0.7243 H   0  0  0  0  0  0
    5.8606   -5.1170   -0.5369 H   0  0  0  0  0  0
    7.3895   -4.0323    1.8998 H   0  0  0  0  0  0
    7.3819   -5.7649    1.2519 H   0  0  0  0  0  0
  1  2  1  0  0  0
  1 13  1  0  0  0
  1 14  1  0  0  0
  1 15  1  0  0  0
  2  3  1  0  0  0
  2 16  1  0  0  0
  2 17  1  0  0  0
  3  4  1  0  0  0
  3  6  1  0  0  0
  3 18  1  0  0  0
  4  5  1  0  0  0
  4 19  1  0  0  0
  4 20  1  0  0  0
  5 21  1  0  0  0
  5 22  1  0  0  0
  5 23  1  0  0  0
  6  7  1  0  0  0
  6 24  1  0  0  0
  6 25  1  0  0  0
  7  8  1  0  0  0
  7 26  1  0  0  0
  7 27  1  0  0  0
  8  9  1  0  0  0
  8 28  1  0  0  0
  8 29  1  0  0  0
  9 10  1  0  0  0
  9 30  1  0  0  0
  9 31  1  0  0  0
 10 11  1  0  0  0
 10 32  1  0  0  0
 10 33  1  0  0  0
 11 12  2  0  0  0
 11 34  1  0  0  0
 12 35  1  0  0  0
 12 36  1  0  0  0
M  END
>  <i_m_Spin_multiplicity> (1)
1

>  <s_j_Task> (1)
Single Point

>  <s_j_QM_Method> (1)
DFT(b3lyp-d3)

>  <s_j_QM_Basis> (1)
cc-pvtz(-f)

>  <i_j_Number_of_canonical_orbitals> (1)
489

>  <i_j_Geometry_convergence_category> (1)
3

>  <r_j_Gas_Phase_Energy> (1)
-471.918493299849

>  <r_j_Final_Energy> (1)
-471.918493299849

>  <r_j_HOMO> (1)
-0.28263763655641

>  <r_j_LUMO> (1)
-0.016830504042292

>  <r_j_Polarizability> (1)
148.21783606028

>  <r_j_QM_Dipole_(debye)> (1)
0.48198468537762

>  <r_j_QM_Dipole_X_(debye)> (1)
-0.341449436453003

>  <r_j_QM_Dipole_Y_(debye)> (1)
0.256367397604567

>  <r_j_QM_Dipole_Z_(debye)> (1)
-0.223600708250112

>  <r_j_Lowest_Frequency_(cm-1)> (1)
54.0805644336987

>  <r_j_Highest_Frequency_(cm-1)> (1)
3166.72310372897

>  <r_j_2nd_Lowest_Frequency_(cm-1)> (1)
69.2414443890029

>  <i_j_Num_Negative_Frequencies> (1)
0

>  <r_j_Zero_Point_Energy_(kcal/mol)> (1)
210.592824623716

>  <r_j_Entropy_(cal/mol/K)_298.15K_1.00E+00atm> (1)
118.873744362342

>  <r_j_Enthalpy_(kcal/mol)_298.15K_1.00E+00atm> (1)
9.84282636764072

>  <r_j_Free_Energy_(kcal/mol)_298.15K_1.00E+00atm> (1)
-25.5993805139916

>  <r_j_Internal_Energy_(kcal/mol)_298.15K_1.00E+00atm> (1)
9.25034077881345

>  <r_j_Heat_Capacity_(cal/mol/K)_298.15K_1.00E+00atm> (1)
55.9855627640059

>  <r_j_ln(Q)_298.15K_1.00E+00atm> (1)
43.2067564118501

>  <r_j_Total_Internal_Energy_(au)_298.15K_1.00E+00atm> (1)
-471.56815091314

>  <r_j_Total_Enthalpy_(au)_298.15K_1.00E+00atm> (1)
-471.567206727247

>  <r_j_Total_Free_Energy_(au)_298.15K_1.00E+00atm> (1)
-471.623687479453

>  <r_lp_tautomer_probability> (1)
1

>  <r_epik_Ionization_Penalty> (1)
  0.0000

>  <r_epik_Ionization_Penalty_Charging> (1)
  0.0000

>  <r_epik_Ionization_Penalty_Neutral> (1)
  0.0000

>  <r_epik_State_Penalty> (1)
  0.0000

>  <r_epik_Charging_Adjusted_Penalty> (1)
0

>  <i_epik_Tot_Q> (1)
0

>  <i_epik_Tot_abs_Q> (1)
0

>  <s_lp_Force_Field> (1)
S-OPLS

>  <r_lp_Energy> (1)
4.81883

>  <b_lp_Chiralities_Consistent> (1)
1

$$$$
