528478_4,7-dimethyl decane
                    3D
 Schrodinger Suite 2021-3.
 38 37  0  0  1  0            999 V2000
   -0.0649    4.6186   -2.3945 C   0  0  0  0  0  0
   -0.6427    3.7728   -1.2552 C   0  0  0  0  0  0
   -0.1847    2.3093   -1.3176 C   0  0  0  0  0  0
   -0.6164    1.4368   -0.1228 C   0  0  0  0  0  0
   -2.1449    1.3759    0.0211 C   0  0  0  0  0  0
   -0.0434    0.0084   -0.2199 C   0  0  0  0  0  0
    1.4905   -0.0760   -0.2175 C   0  0  0  0  0  0
    2.0513   -1.4905    0.0305 C   0  0  0  0  0  0
    1.5650   -2.4882   -1.0319 C   0  0  0  0  0  0
    3.5918   -1.4964    0.0913 C   0  0  0  0  0  0
    4.2116   -0.6826    1.2350 C   0  0  0  0  0  0
    5.7332   -0.8439    1.3130 C   0  0  0  0  0  0
   -0.4060    5.6576   -2.3376 H   0  0  0  0  0  0
   -0.3665    4.2218   -3.3709 H   0  0  0  0  0  0
    1.0309    4.6245   -2.3664 H   0  0  0  0  0  0
   -0.3436    4.2030   -0.2893 H   0  0  0  0  0  0
   -1.7373    3.8272   -1.2877 H   0  0  0  0  0  0
   -0.5575    1.8505   -2.2463 H   0  0  0  0  0  0
    0.9100    2.2980   -1.3931 H   0  0  0  0  0  0
   -0.2073    1.8976    0.7905 H   0  0  0  0  0  0
   -2.6032    0.9719   -0.8904 H   0  0  0  0  0  0
   -2.5817    2.3616    0.2048 H   0  0  0  0  0  0
   -2.4350    0.7263    0.8542 H   0  0  0  0  0  0
   -0.4271   -0.5756    0.6289 H   0  0  0  0  0  0
   -0.4478   -0.4692   -1.1225 H   0  0  0  0  0  0
    1.8930    0.2927   -1.1710 H   0  0  0  0  0  0
    1.8699    0.6027    0.5567 H   0  0  0  0  0  0
    1.6784   -1.8302    1.0100 H   0  0  0  0  0  0
    1.8723   -2.1652   -2.0345 H   0  0  0  0  0  0
    0.4758   -2.5879   -1.0335 H   0  0  0  0  0  0
    1.9881   -3.4839   -0.8597 H   0  0  0  0  0  0
    3.9313   -2.5379    0.1836 H   0  0  0  0  0  0
    3.9895   -1.1357   -0.8694 H   0  0  0  0  0  0
    3.9699    0.3804    1.1167 H   0  0  0  0  0  0
    3.7586   -0.9949    2.1861 H   0  0  0  0  0  0
    6.1591   -0.2545    2.1317 H   0  0  0  0  0  0
    6.2115   -0.5166    0.3826 H   0  0  0  0  0  0
    6.0119   -1.8916    1.4749 H   0  0  0  0  0  0
  1  2  1  0  0  0
  1 13  1  0  0  0
  1 14  1  0  0  0
  1 15  1  0  0  0
  2  3  1  0  0  0
  2 16  1  0  0  0
  2 17  1  0  0  0
  3  4  1  0  0  0
  3 18  1  0  0  0
  3 19  1  0  0  0
  4  5  1  0  0  0
  4  6  1  0  0  0
  4 20  1  0  0  0
  5 21  1  0  0  0
  5 22  1  0  0  0
  5 23  1  0  0  0
  6  7  1  0  0  0
  6 24  1  0  0  0
  6 25  1  0  0  0
  7  8  1  0  0  0
  7 26  1  0  0  0
  7 27  1  0  0  0
  8  9  1  0  0  0
  8 10  1  0  0  0
  8 28  1  0  0  0
  9 29  1  0  0  0
  9 30  1  0  0  0
  9 31  1  0  0  0
 10 11  1  0  0  0
 10 32  1  0  0  0
 10 33  1  0  0  0
 11 12  1  0  0  0
 11 34  1  0  0  0
 11 35  1  0  0  0
 12 36  1  0  0  0
 12 37  1  0  0  0
 12 38  1  0  0  0
M  END
>  <i_m_Spin_multiplicity> (1)
1

>  <s_j_Task> (1)
Single Point

>  <s_j_QM_Method> (1)
DFT(b3lyp-d3)

>  <s_j_QM_Basis> (1)
cc-pvtz(-f)

>  <i_j_Number_of_canonical_orbitals> (1)
506

>  <i_j_Geometry_convergence_category> (1)
0

>  <r_j_Gas_Phase_Energy> (1)
-473.157752706124

>  <r_j_Final_Energy> (1)
-473.157752706124

>  <r_j_HOMO> (1)
-0.289154295258883

>  <r_j_LUMO> (1)
0.0263755961140521

>  <r_j_Polarizability> (1)
147.966350999838

>  <r_j_QM_Dipole_(debye)> (1)
0.183666389270539

>  <r_j_QM_Dipole_X_(debye)> (1)
-0.0217492769755863

>  <r_j_QM_Dipole_Y_(debye)> (1)
0.0563191263921479

>  <r_j_QM_Dipole_Z_(debye)> (1)
0.173460276435678

>  <r_j_Lowest_Frequency_(cm-1)> (1)
49.0688733693744

>  <r_j_Highest_Frequency_(cm-1)> (1)
3056.83204037339

>  <r_j_2nd_Lowest_Frequency_(cm-1)> (1)
77.9170996077955

>  <i_j_Num_Negative_Frequencies> (1)
0

>  <r_j_Zero_Point_Energy_(kcal/mol)> (1)
225.263160249786

>  <r_j_Entropy_(cal/mol/K)_298.15K_1.00E+00atm> (1)
119.485770267285

>  <r_j_Enthalpy_(kcal/mol)_298.15K_1.00E+00atm> (1)
10.0735255226724

>  <r_j_Free_Energy_(kcal/mol)_298.15K_1.00E+00atm> (1)
-25.5511568825187

>  <r_j_Internal_Energy_(kcal/mol)_298.15K_1.00E+00atm> (1)
9.48103993384508

>  <r_j_Heat_Capacity_(cal/mol/K)_298.15K_1.00E+00atm> (1)
58.2026371525921

>  <r_j_ln(Q)_298.15K_1.00E+00atm> (1)
43.1253643368659

>  <r_j_Total_Internal_Energy_(au)_298.15K_1.00E+00atm> (1)
-472.783664008812

>  <r_j_Total_Enthalpy_(au)_298.15K_1.00E+00atm> (1)
-472.782719822919

>  <r_j_Total_Free_Energy_(au)_298.15K_1.00E+00atm> (1)
-472.839491368384

>  <r_lp_tautomer_probability> (1)
1

>  <r_epik_Ionization_Penalty> (1)
  0.0000

>  <r_epik_Ionization_Penalty_Charging> (1)
  0.0000

>  <r_epik_Ionization_Penalty_Neutral> (1)
  0.0000

>  <r_epik_State_Penalty> (1)
  0.0000

>  <r_epik_Charging_Adjusted_Penalty> (1)
0

>  <i_epik_Tot_Q> (1)
0

>  <i_epik_Tot_abs_Q> (1)
0

>  <s_lp_Force_Field> (1)
S-OPLS

>  <r_lp_Energy> (1)
7.377362

>  <b_lp_Chiralities_Consistent> (1)
1

$$$$
