528474_2,8-dimethyl decane
                    3D
 Schrodinger Suite 2021-3.
 38 37  0  0  1  0            999 V2000
   -4.3327    0.8325   -1.2511 C   0  0  0  0  0  0
   -2.8005    0.8480   -1.2960 C   0  0  0  0  0  0
   -2.1282    1.5367   -0.0911 C   0  0  0  0  0  0
   -2.5399    3.0127    0.0239 C   0  0  0  0  0  0
   -0.5910    1.4227   -0.1478 C   0  0  0  0  0  0
   -0.0325   -0.0032   -0.0609 C   0  0  0  0  0  0
    1.4989   -0.0463    0.0025 C   0  0  0  0  0  0
    2.0602   -1.4717    0.0676 C   0  0  0  0  0  0
    3.5910   -1.5140    0.1453 C   0  0  0  0  0  0
    4.2102   -2.9232    0.0833 C   0  0  0  0  0  0
    3.7712   -3.8069    1.2604 C   0  0  0  0  0  0
    5.7419   -2.8340    0.0229 C   0  0  0  0  0  0
   -4.7429    0.2465   -2.0800 H   0  0  0  0  0  0
   -4.7570    1.8386   -1.3208 H   0  0  0  0  0  0
   -4.6932    0.3843   -0.3176 H   0  0  0  0  0  0
   -2.4468   -0.1873   -1.3613 H   0  0  0  0  0  0
   -2.4632    1.3438   -2.2181 H   0  0  0  0  0  0
   -2.4671    1.0181    0.8200 H   0  0  0  0  0  0
   -2.2578    3.5640   -0.8820 H   0  0  0  0  0  0
   -2.0434    3.4943    0.8733 H   0  0  0  0  0  0
   -3.6183    3.1306    0.1635 H   0  0  0  0  0  0
   -0.2317    1.8998   -1.0721 H   0  0  0  0  0  0
   -0.1678    2.0123    0.6776 H   0  0  0  0  0  0
   -0.4468   -0.5011    0.8278 H   0  0  0  0  0  0
   -0.3651   -0.5950   -0.9231 H   0  0  0  0  0  0
    1.9140    0.4692   -0.8756 H   0  0  0  0  0  0
    1.8447    0.5222    0.8777 H   0  0  0  0  0  0
    1.6249   -1.9844    0.9350 H   0  0  0  0  0  0
    1.7261   -2.0332   -0.8171 H   0  0  0  0  0  0
    4.0016   -0.9149   -0.6799 H   0  0  0  0  0  0
    3.9228   -1.0198    1.0710 H   0  0  0  0  0  0
    3.8613   -3.3987   -0.8462 H   0  0  0  0  0  0
    4.0607   -3.3490    2.2148 H   0  0  0  0  0  0
    4.2448   -4.7934    1.2084 H   0  0  0  0  0  0
    2.6882   -3.9611    1.2789 H   0  0  0  0  0  0
    6.1388   -2.3640    0.9314 H   0  0  0  0  0  0
    6.0750   -2.2366   -0.8330 H   0  0  0  0  0  0
    6.1964   -3.8271   -0.0622 H   0  0  0  0  0  0
  1  2  1  0  0  0
  1 13  1  0  0  0
  1 14  1  0  0  0
  1 15  1  0  0  0
  2  3  1  0  0  0
  2 16  1  0  0  0
  2 17  1  0  0  0
  3  4  1  0  0  0
  3  5  1  0  0  0
  3 18  1  0  0  0
  4 19  1  0  0  0
  4 20  1  0  0  0
  4 21  1  0  0  0
  5  6  1  0  0  0
  5 22  1  0  0  0
  5 23  1  0  0  0
  6  7  1  0  0  0
  6 24  1  0  0  0
  6 25  1  0  0  0
  7  8  1  0  0  0
  7 26  1  0  0  0
  7 27  1  0  0  0
  8  9  1  0  0  0
  8 28  1  0  0  0
  8 29  1  0  0  0
  9 10  1  0  0  0
  9 30  1  0  0  0
  9 31  1  0  0  0
 10 11  1  0  0  0
 10 12  1  0  0  0
 10 32  1  0  0  0
 11 33  1  0  0  0
 11 34  1  0  0  0
 11 35  1  0  0  0
 12 36  1  0  0  0
 12 37  1  0  0  0
 12 38  1  0  0  0
M  END
>  <i_m_Spin_multiplicity> (1)
1

>  <s_j_Task> (1)
Single Point

>  <s_j_QM_Method> (1)
DFT(b3lyp-d3)

>  <s_j_QM_Basis> (1)
cc-pvtz(-f)

>  <i_j_Number_of_canonical_orbitals> (1)
506

>  <i_j_Geometry_convergence_category> (1)
0

>  <r_j_Gas_Phase_Energy> (1)
-473.158824917187

>  <r_j_Final_Energy> (1)
-473.158824917187

>  <r_j_HOMO> (1)
-0.294842927990667

>  <r_j_LUMO> (1)
0.0162690087768775

>  <r_j_Polarizability> (1)
149.171277245321

>  <r_j_QM_Dipole_(debye)> (1)
0.134679587061536

>  <r_j_QM_Dipole_X_(debye)> (1)
-0.0388355915245875

>  <r_j_QM_Dipole_Y_(debye)> (1)
-0.113324275546377

>  <r_j_QM_Dipole_Z_(debye)> (1)
-0.0615467023803083

>  <r_j_Lowest_Frequency_(cm-1)> (1)
59.0302185755456

>  <r_j_Highest_Frequency_(cm-1)> (1)
3060.41917809453

>  <r_j_2nd_Lowest_Frequency_(cm-1)> (1)
64.5172485571553

>  <i_j_Num_Negative_Frequencies> (1)
0

>  <r_j_Zero_Point_Energy_(kcal/mol)> (1)
225.203489931533

>  <r_j_Entropy_(cal/mol/K)_298.15K_1.00E+00atm> (1)
119.483006841729

>  <r_j_Enthalpy_(kcal/mol)_298.15K_1.00E+00atm> (1)
10.0609835781716

>  <r_j_Free_Energy_(kcal/mol)_298.15K_1.00E+00atm> (1)
-25.56287491169

>  <r_j_Internal_Energy_(kcal/mol)_298.15K_1.00E+00atm> (1)
9.46849798934431

>  <r_j_Heat_Capacity_(cal/mol/K)_298.15K_1.00E+00atm> (1)
58.1626918713

>  <r_j_ln(Q)_298.15K_1.00E+00atm> (1)
43.1451420823373

>  <r_j_Total_Internal_Energy_(au)_298.15K_1.00E+00atm> (1)
-472.784851297441

>  <r_j_Total_Enthalpy_(au)_298.15K_1.00E+00atm> (1)
-472.783907111549

>  <r_j_Total_Free_Energy_(au)_298.15K_1.00E+00atm> (1)
-472.84067734402

>  <r_lp_tautomer_probability> (1)
1

>  <r_epik_Ionization_Penalty> (1)
  0.0000

>  <r_epik_Ionization_Penalty_Charging> (1)
  0.0000

>  <r_epik_Ionization_Penalty_Neutral> (1)
  0.0000

>  <r_epik_State_Penalty> (1)
  0.0000

>  <r_epik_Charging_Adjusted_Penalty> (1)
0

>  <i_epik_Tot_Q> (1)
0

>  <i_epik_Tot_abs_Q> (1)
0

>  <s_lp_Force_Field> (1)
S-OPLS

>  <r_lp_Energy> (1)
6.587

>  <b_lp_Chiralities_Consistent> (1)
1

$$$$
