528473_2,7-dimethyldecane
                    3D
 Schrodinger Suite 2021-3.
 38 37  0  0  1  0            999 V2000
   -0.1362    4.6616    2.3746 C   0  0  0  0  0  0
   -0.6716    3.8107    1.2187 C   0  0  0  0  0  0
   -0.1960    2.3530    1.2903 C   0  0  0  0  0  0
   -0.5816    1.4794    0.0804 C   0  0  0  0  0  0
   -2.1049    1.4045   -0.1090 C   0  0  0  0  0  0
    0.0012    0.0555    0.1869 C   0  0  0  0  0  0
    1.5325   -0.0361    0.2004 C   0  0  0  0  0  0
    2.0424   -1.4808    0.1236 C   0  0  0  0  0  0
    3.5722   -1.5808    0.1653 C   0  0  0  0  0  0
    4.1420   -2.9931   -0.0669 C   0  0  0  0  0  0
    3.6870   -3.9913    1.0079 C   0  0  0  0  0  0
    5.6750   -2.9475   -0.1411 C   0  0  0  0  0  0
   -0.4911    5.6957    2.3114 H   0  0  0  0  0  0
    0.9598    4.6838    2.3749 H   0  0  0  0  0  0
   -0.4571    4.2577    3.3419 H   0  0  0  0  0  0
   -1.7674    3.8503    1.2219 H   0  0  0  0  0  0
   -0.3528    4.2473    0.2618 H   0  0  0  0  0  0
    0.8959    2.3565    1.3986 H   0  0  0  0  0  0
   -0.5906    1.8864    2.2060 H   0  0  0  0  0  0
   -0.1507    1.9479   -0.8188 H   0  0  0  0  0  0
   -2.5851    0.9868    0.7849 H   0  0  0  0  0  0
   -2.3639    0.7603   -0.9564 H   0  0  0  0  0  0
   -2.5467    2.3875   -0.2958 H   0  0  0  0  0  0
   -0.4011   -0.4287    1.0895 H   0  0  0  0  0  0
   -0.3736   -0.5345   -0.6615 H   0  0  0  0  0  0
    1.9389    0.5378   -0.6452 H   0  0  0  0  0  0
    1.9340    0.4337    1.1073 H   0  0  0  0  0  0
    1.6049   -2.0564    0.9496 H   0  0  0  0  0  0
    1.6727   -1.9469   -0.8014 H   0  0  0  0  0  0
    3.9895   -0.9067   -0.5964 H   0  0  0  0  0  0
    3.9361   -1.2043    1.1332 H   0  0  0  0  0  0
    3.7659   -3.3469   -1.0391 H   0  0  0  0  0  0
    4.0043   -3.6567    2.0037 H   0  0  0  0  0  0
    4.1249   -4.9805    0.8351 H   0  0  0  0  0  0
    2.5995   -4.1099    1.0260 H   0  0  0  0  0  0
    6.0989   -2.5994    0.8092 H   0  0  0  0  0  0
    6.0180   -2.2658   -0.9273 H   0  0  0  0  0  0
    6.0941   -3.9383   -0.3479 H   0  0  0  0  0  0
  1  2  1  0  0  0
  1 13  1  0  0  0
  1 14  1  0  0  0
  1 15  1  0  0  0
  2  3  1  0  0  0
  2 16  1  0  0  0
  2 17  1  0  0  0
  3  4  1  0  0  0
  3 18  1  0  0  0
  3 19  1  0  0  0
  4  5  1  0  0  0
  4  6  1  0  0  0
  4 20  1  0  0  0
  5 21  1  0  0  0
  5 22  1  0  0  0
  5 23  1  0  0  0
  6  7  1  0  0  0
  6 24  1  0  0  0
  6 25  1  0  0  0
  7  8  1  0  0  0
  7 26  1  0  0  0
  7 27  1  0  0  0
  8  9  1  0  0  0
  8 28  1  0  0  0
  8 29  1  0  0  0
  9 10  1  0  0  0
  9 30  1  0  0  0
  9 31  1  0  0  0
 10 11  1  0  0  0
 10 12  1  0  0  0
 10 32  1  0  0  0
 11 33  1  0  0  0
 11 34  1  0  0  0
 11 35  1  0  0  0
 12 36  1  0  0  0
 12 37  1  0  0  0
 12 38  1  0  0  0
M  END
>  <i_m_Spin_multiplicity> (1)
1

>  <s_j_Task> (1)
Single Point

>  <s_j_QM_Method> (1)
DFT(b3lyp-d3)

>  <s_j_QM_Basis> (1)
cc-pvtz(-f)

>  <i_j_Number_of_canonical_orbitals> (1)
506

>  <i_j_Geometry_convergence_category> (1)
3

>  <r_j_Gas_Phase_Energy> (1)
-473.158895915897

>  <r_j_Final_Energy> (1)
-473.158895915897

>  <r_j_HOMO> (1)
-0.296808420435995

>  <r_j_LUMO> (1)
0.016571570106128

>  <r_j_Polarizability> (1)
148.911872368801

>  <r_j_QM_Dipole_(debye)> (1)
0.166152180620395

>  <r_j_QM_Dipole_X_(debye)> (1)
-0.0301582058113795

>  <r_j_QM_Dipole_Y_(debye)> (1)
0.0200548573857701

>  <r_j_QM_Dipole_Z_(debye)> (1)
-0.162156814356929

>  <r_j_Lowest_Frequency_(cm-1)> (1)
59.6351476443097

>  <r_j_Highest_Frequency_(cm-1)> (1)
3056.1630616684

>  <r_j_2nd_Lowest_Frequency_(cm-1)> (1)
71.730138417459

>  <i_j_Num_Negative_Frequencies> (1)
0

>  <r_j_Zero_Point_Energy_(kcal/mol)> (1)
225.198307473211

>  <r_j_Entropy_(cal/mol/K)_298.15K_1.00E+00atm> (1)
119.543274925279

>  <r_j_Enthalpy_(kcal/mol)_298.15K_1.00E+00atm> (1)
10.0591486779967

>  <r_j_Free_Energy_(kcal/mol)_298.15K_1.00E+00atm> (1)
-25.5826787409751

>  <r_j_Internal_Energy_(kcal/mol)_298.15K_1.00E+00atm> (1)
9.46666308916948

>  <r_j_Heat_Capacity_(cal/mol/K)_298.15K_1.00E+00atm> (1)
58.1538055802057

>  <r_j_ln(Q)_298.15K_1.00E+00atm> (1)
43.1785670797694

>  <r_j_Total_Internal_Energy_(au)_298.15K_1.00E+00atm> (1)
-472.784933479024

>  <r_j_Total_Enthalpy_(au)_298.15K_1.00E+00atm> (1)
-472.783989293132

>  <r_j_Total_Free_Energy_(au)_298.15K_1.00E+00atm> (1)
-472.840788160914

>  <r_lp_tautomer_probability> (1)
1

>  <r_epik_Ionization_Penalty> (1)
  0.0000

>  <r_epik_Ionization_Penalty_Charging> (1)
  0.0000

>  <r_epik_Ionization_Penalty_Neutral> (1)
  0.0000

>  <r_epik_State_Penalty> (1)
  0.0000

>  <r_epik_Charging_Adjusted_Penalty> (1)
0

>  <i_epik_Tot_Q> (1)
0

>  <i_epik_Tot_abs_Q> (1)
0

>  <s_lp_Force_Field> (1)
S-OPLS

>  <r_lp_Energy> (1)
6.831209

>  <b_lp_Chiralities_Consistent> (1)
1

$$$$
