5284469_Toxaphene
                    3D
 Schrodinger Suite 2021-3.
 26 27  0  0  1  0            999 V2000
   -0.5778    2.3917    0.8595 C   0  0  0  0  0  0
   -0.7442    1.3969   -0.0078 C   0  0  0  0  0  0
   -0.1068   -0.0077    0.0442 C   0  0  0  0  0  0
   -0.7329   -0.6423   -1.2955 C   0  0  0  0  0  0
    0.0715   -0.0172   -2.4881 C   0  0  0  0  0  0
   -0.4106    1.4884   -2.4616 C   0  0  0  0  0  0
   -1.5135    1.4970   -1.3297 C   0  0  0  0  0  0
   -2.1330    0.0786   -1.4140 C   0  0  0  0  0  0
   -3.0281   -0.2716   -2.9171 Cl  0  0  0  0  0  0
   -3.2974   -0.2188   -0.0665 Cl  0  0  0  0  0  0
   -2.6562    2.8550   -1.4201 Cl  0  0  0  0  0  0
   -0.8891    2.1865   -4.0382 Cl  0  0  0  0  0  0
   -0.0240   -0.8797   -4.0582 Cl  0  0  0  0  0  0
   -0.8204   -2.4200   -1.3140 Cl  0  0  0  0  0  0
    1.4264    0.2204    0.0479 C   0  0  0  0  0  0
    2.4269   -1.2678   -0.2211 Cl  0  0  0  0  0  0
   -0.4524   -0.9121    1.2568 C   0  0  0  0  0  0
   -0.0470   -0.1926    2.8723 Cl  0  0  0  0  0  0
   -1.0586    3.3499    0.6984 H   0  0  0  0  0  0
    0.0114    2.2708    1.7584 H   0  0  0  0  0  0
    1.1306   -0.0695   -2.2706 H   0  0  0  0  0  0
    0.4097    2.1214   -2.1264 H   0  0  0  0  0  0
    1.7448    0.9532   -0.6902 H   0  0  0  0  0  0
    1.7022    0.6011    1.0304 H   0  0  0  0  0  0
   -1.5052   -1.1586    1.2947 H   0  0  0  0  0  0
    0.1326   -1.8267    1.1855 H   0  0  0  0  0  0
  1  2  2  0  0  0
  1 19  1  0  0  0
  1 20  1  0  0  0
  2  7  1  0  0  0
  2  3  1  0  0  0
  3  4  1  0  0  0
  3 15  1  0  0  0
  3 17  1  0  0  0
  4  8  1  0  0  0
  4  5  1  0  0  0
  4 14  1  0  0  0
  5  6  1  0  0  0
  5 13  1  0  0  0
  5 21  1  0  0  0
  6  7  1  0  0  0
  6 12  1  0  0  0
  6 22  1  0  0  0
  7  8  1  0  0  0
  7 11  1  0  0  0
  8  9  1  0  0  0
  8 10  1  0  0  0
 15 16  1  0  0  0
 15 23  1  0  0  0
 15 24  1  0  0  0
 17 18  1  0  0  0
 17 25  1  0  0  0
 17 26  1  0  0  0
M  END
>  <i_m_Spin_multiplicity> (1)
1

>  <s_j_Task> (1)
Single Point

>  <s_j_QM_Method> (1)
DFT(b3lyp-d3)

>  <s_j_QM_Basis> (1)
cc-pvtz(-f)

>  <i_j_Number_of_canonical_orbitals> (1)
511

>  <i_j_Geometry_convergence_category> (1)
3

>  <r_j_Gas_Phase_Energy> (1)
-4067.82803821412

>  <r_j_Final_Energy> (1)
-4067.82803821412

>  <r_j_HOMO> (1)
-0.282911124423245

>  <r_j_LUMO> (1)
-0.0572462446519122

>  <r_j_Polarizability> (1)
200.725037968659

>  <r_j_QM_Dipole_(debye)> (1)
2.69167244526212

>  <r_j_QM_Dipole_X_(debye)> (1)
1.44969081119858

>  <r_j_QM_Dipole_Y_(debye)> (1)
1.6713354800619

>  <r_j_QM_Dipole_Z_(debye)> (1)
1.53301494369624

>  <r_j_Lowest_Frequency_(cm-1)> (1)
64.0941483565838

>  <r_j_Highest_Frequency_(cm-1)> (1)
3221.63329441936

>  <r_j_2nd_Lowest_Frequency_(cm-1)> (1)
82.286913125995

>  <i_j_Num_Negative_Frequencies> (1)
0

>  <r_j_Zero_Point_Energy_(kcal/mol)> (1)
101.119412892876

>  <r_j_Entropy_(cal/mol/K)_298.15K_1.00E+00atm> (1)
136.305812134004

>  <r_j_Enthalpy_(kcal/mol)_298.15K_1.00E+00atm> (1)
12.0023022874705

>  <r_j_Free_Energy_(kcal/mol)_298.15K_1.00E+00atm> (1)
-28.6372756002829

>  <r_j_Internal_Energy_(kcal/mol)_298.15K_1.00E+00atm> (1)
11.4098166986432

>  <r_j_Heat_Capacity_(cal/mol/K)_298.15K_1.00E+00atm> (1)
67.7322957710435

>  <r_j_ln(Q)_298.15K_1.00E+00atm> (1)
48.334130213978

>  <r_j_Total_Internal_Energy_(au)_298.15K_1.00E+00atm> (1)
-4067.6487114709

>  <r_j_Total_Enthalpy_(au)_298.15K_1.00E+00atm> (1)
-4067.64776728501

>  <r_j_Total_Free_Energy_(au)_298.15K_1.00E+00atm> (1)
-4067.71253057518

>  <r_lp_tautomer_probability> (1)
1

>  <r_epik_Ionization_Penalty> (1)
  0.0000

>  <r_epik_Ionization_Penalty_Charging> (1)
  0.0000

>  <r_epik_Ionization_Penalty_Neutral> (1)
  0.0000

>  <r_epik_State_Penalty> (1)
  0.0000

>  <r_epik_Charging_Adjusted_Penalty> (1)
0

>  <i_epik_Tot_Q> (1)
0

>  <i_epik_Tot_abs_Q> (1)
0

>  <s_lp_Force_Field> (1)
S-OPLS

>  <r_lp_Energy> (1)
64.162065

>  <b_lp_Chiralities_Consistent> (1)
1

$$$$
