528437_1-Decene, 4-ethyl
                    3D
 Schrodinger Suite 2021-3.
 36 35  0  0  1  0            999 V2000
   -4.2022    3.0791    0.2468 C   0  0  0  0  0  0
   -2.6897    2.9924    0.0223 C   0  0  0  0  0  0
   -2.1475    1.5614    0.1214 C   0  0  0  0  0  0
   -0.6336    1.4694   -0.0995 C   0  0  0  0  0  0
   -0.0875    0.0385   -0.0244 C   0  0  0  0  0  0
    1.4306   -0.0307   -0.2356 C   0  0  0  0  0  0
    2.0390   -1.4466   -0.1835 C   0  0  0  0  0  0
    3.5732   -1.4029   -0.0300 C   0  0  0  0  0  0
    4.0633   -0.9277    1.3418 C   0  0  0  0  0  0
    1.6447   -2.2656   -1.4388 C   0  0  0  0  0  0
    1.9797   -3.7274   -1.3371 C   0  0  0  0  0  0
    2.8054   -4.3931   -2.1454 C   0  0  0  0  0  0
   -4.5631    4.1099    0.1670 H   0  0  0  0  0  0
   -4.4752    2.7059    1.2406 H   0  0  0  0  0  0
   -4.7452    2.4774   -0.4913 H   0  0  0  0  0  0
   -2.4401    3.4045   -0.9651 H   0  0  0  0  0  0
   -2.1718    3.6265    0.7549 H   0  0  0  0  0  0
   -2.3985    1.1449    1.1076 H   0  0  0  0  0  0
   -2.6627    0.9270   -0.6144 H   0  0  0  0  0  0
   -0.3838    1.8996   -1.0801 H   0  0  0  0  0  0
   -0.1194    2.0950    0.6442 H   0  0  0  0  0  0
   -0.3355   -0.3964    0.9545 H   0  0  0  0  0  0
   -0.6069   -0.5777   -0.7699 H   0  0  0  0  0  0
    1.6881    0.4262   -1.2028 H   0  0  0  0  0  0
    1.9069    0.5974    0.5272 H   0  0  0  0  0  0
    1.6262   -1.9626    0.6986 H   0  0  0  0  0  0
    3.9740   -2.4051   -0.2208 H   0  0  0  0  0  0
    3.9861   -0.7562   -0.8179 H   0  0  0  0  0  0
    5.1567   -0.9482    1.3965 H   0  0  0  0  0  0
    3.6788   -1.5744    2.1390 H   0  0  0  0  0  0
    3.7451    0.0957    1.5653 H   0  0  0  0  0  0
    0.5636   -2.1678   -1.6043 H   0  0  0  0  0  0
    2.1363   -1.8287   -2.3186 H   0  0  0  0  0  0
    1.4982   -4.2624   -0.5164 H   0  0  0  0  0  0
    3.3118   -3.8993   -2.9716 H   0  0  0  0  0  0
    3.0029   -5.4533   -2.0161 H   0  0  0  0  0  0
  1  2  1  0  0  0
  1 13  1  0  0  0
  1 14  1  0  0  0
  1 15  1  0  0  0
  2  3  1  0  0  0
  2 16  1  0  0  0
  2 17  1  0  0  0
  3  4  1  0  0  0
  3 18  1  0  0  0
  3 19  1  0  0  0
  4  5  1  0  0  0
  4 20  1  0  0  0
  4 21  1  0  0  0
  5  6  1  0  0  0
  5 22  1  0  0  0
  5 23  1  0  0  0
  6  7  1  0  0  0
  6 24  1  0  0  0
  6 25  1  0  0  0
  7  8  1  0  0  0
  7 10  1  0  0  0
  7 26  1  0  0  0
  8  9  1  0  0  0
  8 27  1  0  0  0
  8 28  1  0  0  0
  9 29  1  0  0  0
  9 30  1  0  0  0
  9 31  1  0  0  0
 10 11  1  0  0  0
 10 32  1  0  0  0
 10 33  1  0  0  0
 11 12  2  0  0  0
 11 34  1  0  0  0
 12 35  1  0  0  0
 12 36  1  0  0  0
M  END
>  <i_m_Spin_multiplicity> (1)
1

>  <s_j_Task> (1)
Single Point

>  <s_j_QM_Method> (1)
DFT(b3lyp-d3)

>  <s_j_QM_Basis> (1)
cc-pvtz(-f)

>  <i_j_Number_of_canonical_orbitals> (1)
488

>  <i_j_Geometry_convergence_category> (1)
3

>  <r_j_Gas_Phase_Energy> (1)
-471.919895252324

>  <r_j_Final_Energy> (1)
-471.919895252324

>  <r_j_HOMO> (1)
-0.267511600031435

>  <r_j_LUMO> (1)
-0.00305064046856669

>  <r_j_Polarizability> (1)
148.299712147203

>  <r_j_QM_Dipole_(debye)> (1)
0.367868064174352

>  <r_j_QM_Dipole_X_(debye)> (1)
-0.15233551779051

>  <r_j_QM_Dipole_Y_(debye)> (1)
0.295493425088633

>  <r_j_QM_Dipole_Z_(debye)> (1)
0.157494248746648

>  <r_j_Lowest_Frequency_(cm-1)> (1)
55.5717900866317

>  <r_j_Highest_Frequency_(cm-1)> (1)
3167.67071154134

>  <r_j_2nd_Lowest_Frequency_(cm-1)> (1)
75.8256193064365

>  <i_j_Num_Negative_Frequencies> (1)
0

>  <r_j_Zero_Point_Energy_(kcal/mol)> (1)
210.558100886771

>  <r_j_Entropy_(cal/mol/K)_298.15K_1.00E+00atm> (1)
118.845989539592

>  <r_j_Enthalpy_(kcal/mol)_298.15K_1.00E+00atm> (1)
9.84539466330526

>  <r_j_Free_Energy_(kcal/mol)_298.15K_1.00E+00atm> (1)
-25.5885371179242

>  <r_j_Internal_Energy_(kcal/mol)_298.15K_1.00E+00atm> (1)
9.25290907447799

>  <r_j_Heat_Capacity_(cal/mol/K)_298.15K_1.00E+00atm> (1)
55.9771551426625

>  <r_j_ln(Q)_298.15K_1.00E+00atm> (1)
43.1884548762991

>  <r_j_Total_Internal_Energy_(au)_298.15K_1.00E+00atm> (1)
-471.569604108572

>  <r_j_Total_Enthalpy_(au)_298.15K_1.00E+00atm> (1)
-471.56865992268

>  <r_j_Total_Free_Energy_(au)_298.15K_1.00E+00atm> (1)
-471.625127487674

>  <r_lp_tautomer_probability> (1)
1

>  <r_epik_Ionization_Penalty> (1)
  0.0000

>  <r_epik_Ionization_Penalty_Charging> (1)
  0.0000

>  <r_epik_Ionization_Penalty_Neutral> (1)
  0.0000

>  <r_epik_State_Penalty> (1)
  0.0000

>  <r_epik_Charging_Adjusted_Penalty> (1)
0

>  <i_epik_Tot_Q> (1)
0

>  <i_epik_Tot_abs_Q> (1)
0

>  <s_lp_Force_Field> (1)
S-OPLS

>  <r_lp_Energy> (1)
4.750665

>  <b_lp_Chiralities_Consistent> (1)
1

$$$$
