528475_3,5-dimethyl decane
                    3D
 Schrodinger Suite 2021-3.
 38 37  0  0  1  0            999 V2000
   -4.1763    3.0761    0.1589 C   0  0  0  0  0  0
   -2.6555    3.0231   -0.0138 C   0  0  0  0  0  0
   -2.0940    1.5969    0.0295 C   0  0  0  0  0  0
   -0.5706    1.5396   -0.1330 C   0  0  0  0  0  0
   -0.0139    0.1101   -0.0994 C   0  0  0  0  0  0
    1.5236    0.0138   -0.0931 C   0  0  0  0  0  0
    2.1452    0.6689   -1.3370 C   0  0  0  0  0  0
    2.0110   -1.4469    0.0136 C   0  0  0  0  0  0
    1.5191   -2.2694    1.2228 C   0  0  0  0  0  0
    1.7832   -1.5489    2.5536 C   0  0  0  0  0  0
    2.1635   -3.6713    1.2480 C   0  0  0  0  0  0
    1.8596   -4.5480    0.0282 C   0  0  0  0  0  0
   -4.5506    4.1046    0.1236 H   0  0  0  0  0  0
   -4.4790    2.6437    1.1196 H   0  0  0  0  0  0
   -4.6827    2.5094   -0.6311 H   0  0  0  0  0  0
   -2.3766    3.4922   -0.9673 H   0  0  0  0  0  0
   -2.1750    3.6237    0.7708 H   0  0  0  0  0  0
   -2.3781    1.1238    0.9807 H   0  0  0  0  0  0
   -2.5681    0.9957   -0.7598 H   0  0  0  0  0  0
   -0.2960    2.0308   -1.0750 H   0  0  0  0  0  0
   -0.0993    2.1297    0.6668 H   0  0  0  0  0  0
   -0.4097   -0.3889    0.7940 H   0  0  0  0  0  0
   -0.4036   -0.4557   -0.9591 H   0  0  0  0  0  0
    1.8880    0.5647    0.7860 H   0  0  0  0  0  0
    1.7633    0.2018   -2.2536 H   0  0  0  0  0  0
    3.2349    0.5554   -1.3366 H   0  0  0  0  0  0
    1.9258    1.7391   -1.3914 H   0  0  0  0  0  0
    1.7260   -1.9640   -0.9123 H   0  0  0  0  0  0
    3.1112   -1.4418    0.0308 H   0  0  0  0  0  0
    0.4335   -2.4161    1.1250 H   0  0  0  0  0  0
    2.8513   -1.3269    2.6692 H   0  0  0  0  0  0
    1.4789   -2.1698    3.4034 H   0  0  0  0  0  0
    1.2383   -0.6030    2.6252 H   0  0  0  0  0  0
    3.2518   -3.5597    1.3590 H   0  0  0  0  0  0
    1.8200   -4.1920    2.1517 H   0  0  0  0  0  0
    2.2583   -5.5587    0.1636 H   0  0  0  0  0  0
    2.2992   -4.1439   -0.8888 H   0  0  0  0  0  0
    0.7787   -4.6358   -0.1327 H   0  0  0  0  0  0
  1  2  1  0  0  0
  1 13  1  0  0  0
  1 14  1  0  0  0
  1 15  1  0  0  0
  2  3  1  0  0  0
  2 16  1  0  0  0
  2 17  1  0  0  0
  3  4  1  0  0  0
  3 18  1  0  0  0
  3 19  1  0  0  0
  4  5  1  0  0  0
  4 20  1  0  0  0
  4 21  1  0  0  0
  5  6  1  0  0  0
  5 22  1  0  0  0
  5 23  1  0  0  0
  6  7  1  0  0  0
  6  8  1  0  0  0
  6 24  1  0  0  0
  7 25  1  0  0  0
  7 26  1  0  0  0
  7 27  1  0  0  0
  8  9  1  0  0  0
  8 28  1  0  0  0
  8 29  1  0  0  0
  9 10  1  0  0  0
  9 11  1  0  0  0
  9 30  1  0  0  0
 10 31  1  0  0  0
 10 32  1  0  0  0
 10 33  1  0  0  0
 11 12  1  0  0  0
 11 34  1  0  0  0
 11 35  1  0  0  0
 12 36  1  0  0  0
 12 37  1  0  0  0
 12 38  1  0  0  0
M  END
>  <i_m_Spin_multiplicity> (1)
1

>  <s_j_Task> (1)
Single Point

>  <s_j_QM_Method> (1)
DFT(b3lyp-d3)

>  <s_j_QM_Basis> (1)
cc-pvtz(-f)

>  <i_j_Number_of_canonical_orbitals> (1)
506

>  <i_j_Geometry_convergence_category> (1)
3

>  <r_j_Gas_Phase_Energy> (1)
-473.158181697611

>  <r_j_Final_Energy> (1)
-473.158181697611

>  <r_j_HOMO> (1)
-0.296441030937409

>  <r_j_LUMO> (1)
0.0136944133974251

>  <r_j_Polarizability> (1)
147.846694268144

>  <r_j_QM_Dipole_(debye)> (1)
0.0681568364292842

>  <r_j_QM_Dipole_X_(debye)> (1)
-0.0130628142524929

>  <r_j_QM_Dipole_Y_(debye)> (1)
0.0203892411863361

>  <r_j_QM_Dipole_Z_(debye)> (1)
0.063710250978147

>  <r_j_Lowest_Frequency_(cm-1)> (1)
59.2126582211138

>  <r_j_Highest_Frequency_(cm-1)> (1)
3055.47495267679

>  <r_j_2nd_Lowest_Frequency_(cm-1)> (1)
66.7499495071192

>  <i_j_Num_Negative_Frequencies> (1)
0

>  <r_j_Zero_Point_Energy_(kcal/mol)> (1)
225.332302901364

>  <r_j_Entropy_(cal/mol/K)_298.15K_1.00E+00atm> (1)
119.056262065241

>  <r_j_Enthalpy_(kcal/mol)_298.15K_1.00E+00atm> (1)
10.0405538753623

>  <r_j_Free_Energy_(kcal/mol)_298.15K_1.00E+00atm> (1)
-25.4560706593893

>  <r_j_Internal_Energy_(kcal/mol)_298.15K_1.00E+00atm> (1)
9.44806828653501

>  <r_j_Heat_Capacity_(cal/mol/K)_298.15K_1.00E+00atm> (1)
58.1582122723916

>  <r_j_ln(Q)_298.15K_1.00E+00atm> (1)
42.9648773563849

>  <r_j_Total_Internal_Energy_(au)_298.15K_1.00E+00atm> (1)
-472.784035358133

>  <r_j_Total_Enthalpy_(au)_298.15K_1.00E+00atm> (1)
-472.783091172241

>  <r_j_Total_Free_Energy_(au)_298.15K_1.00E+00atm> (1)
-472.839658644497

>  <r_lp_tautomer_probability> (1)
1

>  <r_epik_Ionization_Penalty> (1)
  0.0000

>  <r_epik_Ionization_Penalty_Charging> (1)
  0.0000

>  <r_epik_Ionization_Penalty_Neutral> (1)
  0.0000

>  <r_epik_State_Penalty> (1)
  0.0000

>  <r_epik_Charging_Adjusted_Penalty> (1)
0

>  <i_epik_Tot_Q> (1)
0

>  <i_epik_Tot_abs_Q> (1)
0

>  <s_lp_Force_Field> (1)
S-OPLS

>  <r_lp_Energy> (1)
7.323393

>  <b_lp_Chiralities_Consistent> (1)
1

$$$$
