528972_1-Pentacosene
                    3D
 Schrodinger Suite 2021-3.
 75 74  0  0  1  0            999 V2000
   -9.1229    9.7104   -2.3290 C   0  0  0  0  0  0
   -8.5275    8.3430   -1.9802 C   0  0  0  0  0  0
   -8.6964    7.9808   -0.4978 C   0  0  0  0  0  0
   -8.1909    6.5782   -0.1250 C   0  0  0  0  0  0
   -6.6739    6.3919   -0.2602 C   0  0  0  0  0  0
   -6.2017    4.9853    0.1251 C   0  0  0  0  0  0
   -4.6867    4.7950   -0.0099 C   0  0  0  0  0  0
   -4.2215    3.3667    0.2946 C   0  0  0  0  0  0
   -2.7064    3.1774    0.1587 C   0  0  0  0  0  0
   -2.2517    1.7306    0.3799 C   0  0  0  0  0  0
   -0.7365    1.5396    0.2481 C   0  0  0  0  0  0
   -0.2950    0.0784    0.3883 C   0  0  0  0  0  0
    1.2240   -0.1083    0.2764 C   0  0  0  0  0  0
    1.6809   -1.5744    0.2447 C   0  0  0  0  0  0
    1.3764   -2.3691    1.5215 C   0  0  0  0  0  0
    1.8975   -3.8093    1.4623 C   0  0  0  0  0  0
    1.6063   -4.6266    2.7261 C   0  0  0  0  0  0
    2.1253   -6.0659    2.6368 C   0  0  0  0  0  0
    1.8699   -6.9020    3.8959 C   0  0  0  0  0  0
    2.4035   -8.3340    3.7736 C   0  0  0  0  0  0
    2.1963   -9.1796    5.0367 C   0  0  0  0  0  0
    2.6470  -10.6420    4.8940 C   0  0  0  0  0  0
    4.1597  -10.8110    4.6466 C   0  0  0  0  0  0
    4.5807  -12.2537    4.6070 C   0  0  0  0  0  0
    5.1276  -12.8677    3.5576 C   0  0  0  0  0  0
   -8.9914    9.9484   -3.3898 H   0  0  0  0  0  0
   -8.6458   10.5075   -1.7470 H   0  0  0  0  0  0
  -10.1967    9.7410   -2.1103 H   0  0  0  0  0  0
   -9.0026    7.5661   -2.5953 H   0  0  0  0  0  0
   -7.4637    8.3344   -2.2479 H   0  0  0  0  0  0
   -8.1802    8.7308    0.1191 H   0  0  0  0  0  0
   -9.7611    8.0565   -0.2375 H   0  0  0  0  0  0
   -8.4824    6.3557    0.9105 H   0  0  0  0  0  0
   -8.7035    5.8327   -0.7502 H   0  0  0  0  0  0
   -6.3619    6.5974   -1.2925 H   0  0  0  0  0  0
   -6.1604    7.1360    0.3659 H   0  0  0  0  0  0
   -6.5072    4.7646    1.1580 H   0  0  0  0  0  0
   -6.7171    4.2472   -0.5064 H   0  0  0  0  0  0
   -4.3777    5.0637   -1.0304 H   0  0  0  0  0  0
   -4.1695    5.4995    0.6572 H   0  0  0  0  0  0
   -4.5346    3.0872    1.3108 H   0  0  0  0  0  0
   -4.7356    2.6690   -0.3822 H   0  0  0  0  0  0
   -2.3888    3.5055   -0.8416 H   0  0  0  0  0  0
   -2.1906    3.8374    0.8708 H   0  0  0  0  0  0
   -2.5767    1.3919    1.3742 H   0  0  0  0  0  0
   -2.7629    1.0783   -0.3428 H   0  0  0  0  0  0
   -0.4053    1.9251   -0.7269 H   0  0  0  0  0  0
   -0.2244    2.1516    1.0045 H   0  0  0  0  0  0
   -0.6510   -0.3132    1.3501 H   0  0  0  0  0  0
   -0.7910   -0.5243   -0.3868 H   0  0  0  0  0  0
    1.5748    0.3903   -0.6376 H   0  0  0  0  0  0
    1.7158    0.4102    1.1120 H   0  0  0  0  0  0
    1.2115   -2.0787   -0.6126 H   0  0  0  0  0  0
    2.7631   -1.6069    0.0587 H   0  0  0  0  0  0
    1.8204   -1.8532    2.3854 H   0  0  0  0  0  0
    0.2938   -2.3885    1.7024 H   0  0  0  0  0  0
    1.4547   -4.3174    0.5934 H   0  0  0  0  0  0
    2.9822   -3.7962    1.2823 H   0  0  0  0  0  0
    2.0581   -4.1280    3.5956 H   0  0  0  0  0  0
    0.5229   -4.6392    2.9128 H   0  0  0  0  0  0
    1.6630   -6.5637    1.7721 H   0  0  0  0  0  0
    3.2053   -6.0474    2.4307 H   0  0  0  0  0  0
    2.3377   -6.4107    4.7612 H   0  0  0  0  0  0
    0.7915   -6.9281    4.1082 H   0  0  0  0  0  0
    1.9163   -8.8317    2.9224 H   0  0  0  0  0  0
    3.4721   -8.2898    3.5265 H   0  0  0  0  0  0
    2.7309   -8.7139    5.8772 H   0  0  0  0  0  0
    1.1317   -9.1616    5.3065 H   0  0  0  0  0  0
    2.3732  -11.1936    5.8033 H   0  0  0  0  0  0
    2.0977  -11.1185    4.0710 H   0  0  0  0  0  0
    4.4471  -10.3231    3.7085 H   0  0  0  0  0  0
    4.7031  -10.2913    5.4506 H   0  0  0  0  0  0
    4.3971  -12.8251    5.5187 H   0  0  0  0  0  0
    5.3235  -12.3383    2.6276 H   0  0  0  0  0  0
    5.4007  -13.9186    3.5860 H   0  0  0  0  0  0
  1  2  1  0  0  0
  1 26  1  0  0  0
  1 27  1  0  0  0
  1 28  1  0  0  0
  2  3  1  0  0  0
  2 29  1  0  0  0
  2 30  1  0  0  0
  3  4  1  0  0  0
  3 31  1  0  0  0
  3 32  1  0  0  0
  4  5  1  0  0  0
  4 33  1  0  0  0
  4 34  1  0  0  0
  5  6  1  0  0  0
  5 35  1  0  0  0
  5 36  1  0  0  0
  6  7  1  0  0  0
  6 37  1  0  0  0
  6 38  1  0  0  0
  7  8  1  0  0  0
  7 39  1  0  0  0
  7 40  1  0  0  0
  8  9  1  0  0  0
  8 41  1  0  0  0
  8 42  1  0  0  0
  9 10  1  0  0  0
  9 43  1  0  0  0
  9 44  1  0  0  0
 10 11  1  0  0  0
 10 45  1  0  0  0
 10 46  1  0  0  0
 11 12  1  0  0  0
 11 47  1  0  0  0
 11 48  1  0  0  0
 12 13  1  0  0  0
 12 49  1  0  0  0
 12 50  1  0  0  0
 13 14  1  0  0  0
 13 51  1  0  0  0
 13 52  1  0  0  0
 14 15  1  0  0  0
 14 53  1  0  0  0
 14 54  1  0  0  0
 15 16  1  0  0  0
 15 55  1  0  0  0
 15 56  1  0  0  0
 16 17  1  0  0  0
 16 57  1  0  0  0
 16 58  1  0  0  0
 17 18  1  0  0  0
 17 59  1  0  0  0
 17 60  1  0  0  0
 18 19  1  0  0  0
 18 61  1  0  0  0
 18 62  1  0  0  0
 19 20  1  0  0  0
 19 63  1  0  0  0
 19 64  1  0  0  0
 20 21  1  0  0  0
 20 65  1  0  0  0
 20 66  1  0  0  0
 21 22  1  0  0  0
 21 67  1  0  0  0
 21 68  1  0  0  0
 22 23  1  0  0  0
 22 69  1  0  0  0
 22 70  1  0  0  0
 23 24  1  0  0  0
 23 71  1  0  0  0
 23 72  1  0  0  0
 24 25  2  0  0  0
 24 73  1  0  0  0
 25 74  1  0  0  0
 25 75  1  0  0  0
M  END
>  <i_m_Spin_multiplicity> (1)
1

>  <s_j_Task> (1)
Single Point

>  <s_j_QM_Method> (1)
DFT(b3lyp-d3)

>  <s_j_QM_Basis> (1)
cc-pvtz(-f)

>  <i_j_Number_of_canonical_orbitals> (1)
1016

>  <i_j_Geometry_convergence_category> (1)
3

>  <r_j_Gas_Phase_Energy> (1)
-983.200678083459

>  <r_j_Final_Energy> (1)
-983.200678083459

>  <r_j_HOMO> (1)
-0.264196004309177

>  <r_j_LUMO> (1)
-0.0808646982672964

>  <r_j_Polarizability> (1)
311.915450866933

>  <r_j_QM_Dipole_(debye)> (1)
0.432275411497556

>  <r_j_QM_Dipole_X_(debye)> (1)
-0.226445714182799

>  <r_j_QM_Dipole_Y_(debye)> (1)
0.323161242180083

>  <r_j_QM_Dipole_Z_(debye)> (1)
0.176496972966251

>  <r_j_Lowest_Frequency_(cm-1)> (1)
21.5698866839773

>  <r_j_Highest_Frequency_(cm-1)> (1)
3166.41080606652

>  <r_j_2nd_Lowest_Frequency_(cm-1)> (1)
33.0220798724829

>  <i_j_Num_Negative_Frequencies> (1)
0

>  <r_j_Zero_Point_Energy_(kcal/mol)> (1)
443.360050128483

>  <r_j_Entropy_(cal/mol/K)_298.15K_1.00E+00atm> (1)
189.547139998547

>  <r_j_Enthalpy_(kcal/mol)_298.15K_1.00E+00atm> (1)
19.6740929563755

>  <r_j_Free_Energy_(kcal/mol)_298.15K_1.00E+00atm> (1)
-36.8393868341914

>  <r_j_Internal_Energy_(kcal/mol)_298.15K_1.00E+00atm> (1)
19.0816073675482

>  <r_j_Heat_Capacity_(cal/mol/K)_298.15K_1.00E+00atm> (1)
116.830637884027

>  <r_j_ln(Q)_298.15K_1.00E+00atm> (1)
62.1776926374003

>  <r_j_Total_Internal_Energy_(au)_298.15K_1.00E+00atm> (1)
-982.463730388476

>  <r_j_Total_Enthalpy_(au)_298.15K_1.00E+00atm> (1)
-982.462786202584

>  <r_j_Total_Free_Energy_(au)_298.15K_1.00E+00atm> (1)
-982.552846165808

>  <r_lp_tautomer_probability> (1)
1

>  <r_epik_Ionization_Penalty> (1)
  0.0000

>  <r_epik_Ionization_Penalty_Charging> (1)
  0.0000

>  <r_epik_Ionization_Penalty_Neutral> (1)
  0.0000

>  <r_epik_State_Penalty> (1)
  0.0000

>  <r_epik_Charging_Adjusted_Penalty> (1)
0

>  <i_epik_Tot_Q> (1)
0

>  <i_epik_Tot_abs_Q> (1)
0

>  <s_lp_Force_Field> (1)
S-OPLS

>  <r_lp_Energy> (1)
10.619936

>  <b_lp_Chiralities_Consistent> (1)
1

$$$$
