529827_3-ethyldecane
                    3D
 Schrodinger Suite 2021-3.
 38 37  0  0  1  0            999 V2000
   -4.7200    4.4361    0.0794 C   0  0  0  0  0  0
   -4.1784    3.0044    0.0301 C   0  0  0  0  0  0
   -2.6465    2.9402    0.0342 C   0  0  0  0  0  0
   -2.0981    1.5102   -0.0214 C   0  0  0  0  0  0
   -0.5670    1.4399   -0.0276 C   0  0  0  0  0  0
   -0.0276    0.0061   -0.0969 C   0  0  0  0  0  0
    1.5053   -0.0550   -0.1352 C   0  0  0  0  0  0
    2.1159   -1.4708   -0.0708 C   0  0  0  0  0  0
    3.6532   -1.4133    0.0582 C   0  0  0  0  0  0
    4.1755   -0.7304    1.3281 C   0  0  0  0  0  0
    1.6883   -2.3225   -1.2855 C   0  0  0  0  0  0
    2.1130   -3.7951   -1.2304 C   0  0  0  0  0  0
   -5.8149    4.4536    0.0749 H   0  0  0  0  0  0
   -4.3733    5.0181   -0.7824 H   0  0  0  0  0  0
   -4.3816    4.9546    0.9840 H   0  0  0  0  0  0
   -4.5659    2.4341    0.8855 H   0  0  0  0  0  0
   -4.5580    2.4982   -0.8681 H   0  0  0  0  0  0
   -2.2574    3.5128   -0.8202 H   0  0  0  0  0  0
   -2.2641    3.4435    0.9340 H   0  0  0  0  0  0
   -2.4845    0.9389    0.8350 H   0  0  0  0  0  0
   -2.4871    1.0081   -0.9190 H   0  0  0  0  0  0
   -0.1807    2.0142   -0.8820 H   0  0  0  0  0  0
   -0.1748    1.9360    0.8718 H   0  0  0  0  0  0
   -0.3921   -0.5621    0.7712 H   0  0  0  0  0  0
   -0.4527   -0.4847   -0.9812 H   0  0  0  0  0  0
    1.8673    0.4466   -1.0455 H   0  0  0  0  0  0
    1.8847    0.5379    0.7055 H   0  0  0  0  0  0
    1.7247   -1.9629    0.8354 H   0  0  0  0  0  0
    4.0509   -2.4339    0.0348 H   0  0  0  0  0  0
    4.0631   -0.9082   -0.8285 H   0  0  0  0  0  0
    5.2634   -0.8288    1.4033 H   0  0  0  0  0  0
    3.7384   -1.1847    2.2251 H   0  0  0  0  0  0
    3.9438    0.3386    1.3520 H   0  0  0  0  0  0
    0.5974   -2.2884   -1.3785 H   0  0  0  0  0  0
    2.0848   -1.8570   -2.1997 H   0  0  0  0  0  0
    1.6802   -4.3561   -2.0651 H   0  0  0  0  0  0
    1.7714   -4.2663   -0.3013 H   0  0  0  0  0  0
    3.1987   -3.9187   -1.2845 H   0  0  0  0  0  0
  1  2  1  0  0  0
  1 13  1  0  0  0
  1 14  1  0  0  0
  1 15  1  0  0  0
  2  3  1  0  0  0
  2 16  1  0  0  0
  2 17  1  0  0  0
  3  4  1  0  0  0
  3 18  1  0  0  0
  3 19  1  0  0  0
  4  5  1  0  0  0
  4 20  1  0  0  0
  4 21  1  0  0  0
  5  6  1  0  0  0
  5 22  1  0  0  0
  5 23  1  0  0  0
  6  7  1  0  0  0
  6 24  1  0  0  0
  6 25  1  0  0  0
  7  8  1  0  0  0
  7 26  1  0  0  0
  7 27  1  0  0  0
  8  9  1  0  0  0
  8 11  1  0  0  0
  8 28  1  0  0  0
  9 10  1  0  0  0
  9 29  1  0  0  0
  9 30  1  0  0  0
 10 31  1  0  0  0
 10 32  1  0  0  0
 10 33  1  0  0  0
 11 12  1  0  0  0
 11 34  1  0  0  0
 11 35  1  0  0  0
 12 36  1  0  0  0
 12 37  1  0  0  0
 12 38  1  0  0  0
M  END
>  <i_m_Spin_multiplicity> (1)
1

>  <s_j_Task> (1)
Single Point

>  <s_j_QM_Method> (1)
DFT(b3lyp-d3)

>  <s_j_QM_Basis> (1)
cc-pvtz(-f)

>  <i_j_Number_of_canonical_orbitals> (1)
506

>  <i_j_Geometry_convergence_category> (1)
3

>  <r_j_Gas_Phase_Energy> (1)
-473.156327214511

>  <r_j_Final_Energy> (1)
-473.156327214511

>  <r_j_HOMO> (1)
-0.290329276329099

>  <r_j_LUMO> (1)
0.0261052389195487

>  <r_j_Polarizability> (1)
149.162406377179

>  <r_j_QM_Dipole_(debye)> (1)
0.0827207900238821

>  <r_j_QM_Dipole_X_(debye)> (1)
-0.0406635154646854

>  <r_j_QM_Dipole_Y_(debye)> (1)
-0.0678604794892156

>  <r_j_QM_Dipole_Z_(debye)> (1)
-0.0241694628761632

>  <r_j_Lowest_Frequency_(cm-1)> (1)
53.8693016089751

>  <r_j_Highest_Frequency_(cm-1)> (1)
3057.80517286679

>  <r_j_2nd_Lowest_Frequency_(cm-1)> (1)
65.6437219780763

>  <i_j_Num_Negative_Frequencies> (1)
0

>  <r_j_Zero_Point_Energy_(kcal/mol)> (1)
225.402342032731

>  <r_j_Entropy_(cal/mol/K)_298.15K_1.00E+00atm> (1)
120.822368693657

>  <r_j_Enthalpy_(kcal/mol)_298.15K_1.00E+00atm> (1)
10.1565510683626

>  <r_j_Free_Energy_(kcal/mol)_298.15K_1.00E+00atm> (1)
-25.8666381576512

>  <r_j_Internal_Energy_(kcal/mol)_298.15K_1.00E+00atm> (1)
9.56406547953535

>  <r_j_Heat_Capacity_(cal/mol/K)_298.15K_1.00E+00atm> (1)
57.8189133147796

>  <r_j_ln(Q)_298.15K_1.00E+00atm> (1)
43.657835136294

>  <r_j_Total_Internal_Energy_(au)_298.15K_1.00E+00atm> (1)
-472.781884407278

>  <r_j_Total_Enthalpy_(au)_298.15K_1.00E+00atm> (1)
-472.780940221385

>  <r_j_Total_Free_Energy_(au)_298.15K_1.00E+00atm> (1)
-472.838346827896

>  <r_lp_tautomer_probability> (1)
1

>  <r_epik_Ionization_Penalty> (1)
  0.0000

>  <r_epik_Ionization_Penalty_Charging> (1)
  0.0000

>  <r_epik_Ionization_Penalty_Neutral> (1)
  0.0000

>  <r_epik_State_Penalty> (1)
  0.0000

>  <r_epik_Charging_Adjusted_Penalty> (1)
0

>  <i_epik_Tot_Q> (1)
0

>  <i_epik_Tot_abs_Q> (1)
0

>  <s_lp_Force_Field> (1)
S-OPLS

>  <r_lp_Energy> (1)
7.483335

>  <b_lp_Chiralities_Consistent> (1)
1

$$$$
