530112_5-ethyl nonane
                    3D
 Schrodinger Suite 2021-3.
 35 34  0  0  1  0            999 V2000
   -2.6964    2.9833    0.0548 C   0  0  0  0  0  0
   -2.1270    1.5616    0.0391 C   0  0  0  0  0  0
   -0.5989    1.5283   -0.0906 C   0  0  0  0  0  0
   -0.0372    0.1003   -0.1265 C   0  0  0  0  0  0
    1.5010   -0.0157   -0.0865 C   0  0  0  0  0  0
    2.1498    0.6967   -1.2931 C   0  0  0  0  0  0
    3.6828    0.7384   -1.2797 C   0  0  0  0  0  0
    1.9497   -1.4896    0.0012 C   0  0  0  0  0  0
    1.4648   -2.2604    1.2365 C   0  0  0  0  0  0
    2.0823   -3.6607    1.3421 C   0  0  0  0  0  0
    1.5871   -4.4438    2.5616 C   0  0  0  0  0  0
   -3.7873    2.9798    0.1499 H   0  0  0  0  0  0
   -2.4436    3.5193   -0.8674 H   0  0  0  0  0  0
   -2.2900    3.5611    0.8930 H   0  0  0  0  0  0
   -2.4245    1.0353    0.9564 H   0  0  0  0  0  0
   -2.5713    0.9964   -0.7918 H   0  0  0  0  0  0
   -0.3118    2.0775   -0.9960 H   0  0  0  0  0  0
   -0.1512    2.0752    0.7522 H   0  0  0  0  0  0
   -0.4575   -0.4451    0.7269 H   0  0  0  0  0  0
   -0.4084   -0.4143   -1.0258 H   0  0  0  0  0  0
    1.8505    0.4936    0.8269 H   0  0  0  0  0  0
    1.8017    0.2132   -2.2176 H   0  0  0  0  0  0
    1.7829    1.7281   -1.3351 H   0  0  0  0  0  0
    4.0617    1.3635   -2.0949 H   0  0  0  0  0  0
    4.1277   -0.2541   -1.3979 H   0  0  0  0  0  0
    4.0552    1.1591   -0.3382 H   0  0  0  0  0  0
    1.6208   -2.0156   -0.9079 H   0  0  0  0  0  0
    3.0455   -1.5294   -0.0077 H   0  0  0  0  0  0
    1.7084   -1.6871    2.1431 H   0  0  0  0  0  0
    0.3721   -2.3590    1.2238 H   0  0  0  0  0  0
    1.8559   -4.2241    0.4264 H   0  0  0  0  0  0
    3.1767   -3.5724    1.3805 H   0  0  0  0  0  0
    2.0432   -5.4380    2.6149 H   0  0  0  0  0  0
    0.4995   -4.5770    2.5294 H   0  0  0  0  0  0
    1.8265   -3.9164    3.4923 H   0  0  0  0  0  0
  1  2  1  0  0  0
  1 12  1  0  0  0
  1 13  1  0  0  0
  1 14  1  0  0  0
  2  3  1  0  0  0
  2 15  1  0  0  0
  2 16  1  0  0  0
  3  4  1  0  0  0
  3 17  1  0  0  0
  3 18  1  0  0  0
  4  5  1  0  0  0
  4 19  1  0  0  0
  4 20  1  0  0  0
  5  6  1  0  0  0
  5  8  1  0  0  0
  5 21  1  0  0  0
  6  7  1  0  0  0
  6 22  1  0  0  0
  6 23  1  0  0  0
  7 24  1  0  0  0
  7 25  1  0  0  0
  7 26  1  0  0  0
  8  9  1  0  0  0
  8 27  1  0  0  0
  8 28  1  0  0  0
  9 10  1  0  0  0
  9 29  1  0  0  0
  9 30  1  0  0  0
 10 11  1  0  0  0
 10 31  1  0  0  0
 10 32  1  0  0  0
 11 33  1  0  0  0
 11 34  1  0  0  0
 11 35  1  0  0  0
M  END
>  <i_m_Spin_multiplicity> (1)
1

>  <s_j_Task> (1)
Single Point

>  <s_j_QM_Method> (1)
DFT(b3lyp-d3)

>  <s_j_QM_Basis> (1)
cc-pvtz(-f)

>  <i_j_Number_of_canonical_orbitals> (1)
465

>  <i_j_Geometry_convergence_category> (1)
0

>  <r_j_Gas_Phase_Energy> (1)
-433.826867152451

>  <r_j_Final_Energy> (1)
-433.826867152451

>  <r_j_HOMO> (1)
-0.298014814461931

>  <r_j_LUMO> (1)
0.00931382009736841

>  <r_j_Polarizability> (1)
136.382113217011

>  <r_j_QM_Dipole_(debye)> (1)
0.0235920926598612

>  <r_j_QM_Dipole_X_(debye)> (1)
-0.001749791076269

>  <r_j_QM_Dipole_Y_(debye)> (1)
0.00218599084901169

>  <r_j_QM_Dipole_Z_(debye)> (1)
-0.0234253390854631

>  <r_j_Lowest_Frequency_(cm-1)> (1)
71.621956920136

>  <r_j_Highest_Frequency_(cm-1)> (1)
3056.08036752359

>  <r_j_2nd_Lowest_Frequency_(cm-1)> (1)
77.4883106701084

>  <i_j_Num_Negative_Frequencies> (1)
0

>  <r_j_Zero_Point_Energy_(kcal/mol)> (1)
207.541083220866

>  <r_j_Entropy_(cal/mol/K)_298.15K_1.00E+00atm> (1)
115.086291387662

>  <r_j_Enthalpy_(kcal/mol)_298.15K_1.00E+00atm> (1)
9.38839255903103

>  <r_j_Free_Energy_(kcal/mol)_298.15K_1.00E+00atm> (1)
-24.9245852182003

>  <r_j_Internal_Energy_(kcal/mol)_298.15K_1.00E+00atm> (1)
8.79590697020375

>  <r_j_Heat_Capacity_(cal/mol/K)_298.15K_1.00E+00atm> (1)
53.0600150769081

>  <r_j_ln(Q)_298.15K_1.00E+00atm> (1)
42.0678336962327

>  <r_j_Total_Internal_Energy_(au)_298.15K_1.00E+00atm> (1)
-433.482112211635

>  <r_j_Total_Enthalpy_(au)_298.15K_1.00E+00atm> (1)
-433.481168025743

>  <r_j_Total_Free_Energy_(au)_298.15K_1.00E+00atm> (1)
-433.535849236813

>  <r_lp_tautomer_probability> (1)
1

>  <r_epik_Ionization_Penalty> (1)
  0.0000

>  <r_epik_Ionization_Penalty_Charging> (1)
  0.0000

>  <r_epik_Ionization_Penalty_Neutral> (1)
  0.0000

>  <r_epik_State_Penalty> (1)
  0.0000

>  <r_epik_Charging_Adjusted_Penalty> (1)
0

>  <i_epik_Tot_Q> (1)
0

>  <i_epik_Tot_abs_Q> (1)
0

>  <s_lp_Force_Field> (1)
S-OPLS

>  <r_lp_Energy> (1)
7.099805

>  <b_lp_Chiralities_Consistent> (1)
1

$$$$
