53230_1,3-dinitropyrene
                    3D
 Schrodinger Suite 2021-3.
 30 33  0  0  1  0            999 V2000
   -4.3086    4.8768   -0.0001 C   0  0  0  0  0  0
   -4.9858    3.6613    0.0000 C   0  0  0  0  0  0
   -4.2848    2.4430    0.0000 C   0  0  0  0  0  0
   -2.8594    2.4405    0.0000 C   0  0  0  0  0  0
   -2.1815    3.6942    0.0000 C   0  0  0  0  0  0
   -2.9174    4.8915   -0.0001 C   0  0  0  0  0  0
   -0.7562    3.6946    0.0000 C   0  0  0  0  0  0
   -0.0388    2.5370    0.0000 C   0  0  0  0  0  0
   -0.6844    1.2542    0.0000 C   0  0  0  0  0  0
   -0.0054    0.0053    0.0001 C   0  0  0  0  0  0
   -0.6965   -1.1947    0.0000 C   0  0  0  0  0  0
   -2.0807   -1.2298    0.0000 C   0  0  0  0  0  0
   -2.8543   -0.0372    0.0001 C   0  0  0  0  0  0
   -2.1262    1.2080    0.0001 C   0  0  0  0  0  0
   -4.2894    0.0076    0.0001 C   0  0  0  0  0  0
   -4.9637    1.1904    0.0001 C   0  0  0  0  0  0
   -2.6542   -2.5947   -0.0001 N   0  3  1  0  0  0
   -3.8783   -2.7397    0.0002 O   0  0  0  0  0  0
   -1.8657   -3.5402   -0.0006 O   0  5  0  0  0  0
    1.4678   -0.1413    0.0001 N   0  3  1  0  0  0
    1.9230   -1.2852    0.0002 O   0  0  0  0  0  0
    2.1786    0.8660    0.0000 O   0  5  0  0  0  0
   -4.8629    5.8097   -0.0001 H   0  0  0  0  0  0
   -6.0720    3.6411    0.0000 H   0  0  0  0  0  0
   -2.3808    5.8357   -0.0001 H   0  0  0  0  0  0
   -0.2355    4.6481    0.0000 H   0  0  0  0  0  0
    1.0373    2.5696    0.0000 H   0  0  0  0  0  0
   -0.1447   -2.1224    0.0000 H   0  0  0  0  0  0
   -4.8321   -0.9221    0.0001 H   0  0  0  0  0  0
   -6.0503    1.1882    0.0001 H   0  0  0  0  0  0
  1  6  1  0  0  0
  1  2  2  0  0  0
  1 23  1  0  0  0
  2  3  1  0  0  0
  2 24  1  0  0  0
  3 16  1  0  0  0
  3  4  2  0  0  0
  4 14  1  0  0  0
  4  5  1  0  0  0
  5  6  2  0  0  0
  5  7  1  0  0  0
  6 25  1  0  0  0
  7  8  2  0  0  0
  7 26  1  0  0  0
  8  9  1  0  0  0
  8 27  1  0  0  0
  9 14  1  0  0  0
  9 10  2  0  0  0
 10 11  1  0  0  0
 10 20  1  0  0  0
 11 12  2  0  0  0
 11 28  1  0  0  0
 12 13  1  0  0  0
 12 17  1  0  0  0
 13 14  2  0  0  0
 13 15  1  0  0  0
 15 16  2  0  0  0
 15 29  1  0  0  0
 16 30  1  0  0  0
 17 18  2  0  0  0
 17 19  1  0  0  0
 20 21  2  0  0  0
 20 22  1  0  0  0
M  END
>  <i_m_Spin_multiplicity> (1)
1

>  <s_j_Task> (1)
Single Point

>  <s_j_QM_Method> (1)
DFT(b3lyp-d3)

>  <s_j_QM_Basis> (1)
cc-pvtz(-f)

>  <i_j_Number_of_canonical_orbitals> (1)
559

>  <i_j_Geometry_convergence_category> (1)
3

>  <r_j_Gas_Phase_Energy> (1)
-1025.10210091337

>  <r_j_Final_Energy> (1)
-1025.10210091337

>  <r_j_HOMO> (1)
-0.237886101139543

>  <r_j_LUMO> (1)
-0.124299238644343

>  <r_j_Polarizability> (1)
239.727961042184

>  <r_j_QM_Dipole_(debye)> (1)
8.24064313239081

>  <r_j_QM_Dipole_X_(debye)> (1)
-4.21274116705991

>  <r_j_QM_Dipole_Y_(debye)> (1)
7.08244386009732

>  <r_j_QM_Dipole_Z_(debye)> (1)
0.000251690773305573

>  <r_j_Lowest_Frequency_(cm-1)> (1)
43.5867148148036

>  <r_j_Highest_Frequency_(cm-1)> (1)
3244.10275708201

>  <r_j_2nd_Lowest_Frequency_(cm-1)> (1)
52.0015900635424

>  <i_j_Num_Negative_Frequencies> (1)
0

>  <r_j_Zero_Point_Energy_(kcal/mol)> (1)
132.642862449954

>  <r_j_Entropy_(cal/mol/K)_298.15K_1.00E+00atm> (1)
119.841736770383

>  <r_j_Enthalpy_(kcal/mol)_298.15K_1.00E+00atm> (1)
9.82797903139772

>  <r_j_Free_Energy_(kcal/mol)_298.15K_1.00E+00atm> (1)
-25.9028347866919

>  <r_j_Internal_Energy_(kcal/mol)_298.15K_1.00E+00atm> (1)
9.23549344257045

>  <r_j_Heat_Capacity_(cal/mol/K)_298.15K_1.00E+00atm> (1)
61.0012686331531

>  <r_j_ln(Q)_298.15K_1.00E+00atm> (1)
43.7189279792647

>  <r_j_Total_Internal_Energy_(au)_298.15K_1.00E+00atm> (1)
-1024.87600335999

>  <r_j_Total_Enthalpy_(au)_298.15K_1.00E+00atm> (1)
-1024.8750591741

>  <r_j_Total_Free_Energy_(au)_298.15K_1.00E+00atm> (1)
-1024.93199985073

>  <r_lp_tautomer_probability> (1)
1

>  <r_epik_Ionization_Penalty> (1)
  0.0000

>  <r_epik_Ionization_Penalty_Charging> (1)
  0.0000

>  <r_epik_Ionization_Penalty_Neutral> (1)
  0.0000

>  <r_epik_State_Penalty> (1)
  0.0000

>  <r_epik_Charging_Adjusted_Penalty> (1)
0

>  <i_epik_Tot_Q> (1)
0

>  <i_epik_Tot_abs_Q> (1)
4

>  <s_lp_Force_Field> (1)
S-OPLS

>  <r_lp_Energy> (1)
57.249

>  <b_lp_Chiralities_Consistent> (1)
1

$$$$
