53445481_Stoddard solvent
                    3D
 Schrodinger Suite 2021-3.
 21 20  0  0  1  0            999 V2000
    0.0740    0.0708   -0.1670 C   0  0  0  0  0  0
    1.6048    0.0534   -0.2118 C   0  0  0  0  0  0
    2.1887   -1.3618   -0.1643 C   0  0  0  0  0  0
    3.6995   -1.4090    0.0062 C   0  0  0  0  0  0
    4.2631   -0.7701    1.8140 Br  0  0  0  0  0  0
   -0.5010    1.4895   -0.2149 C   0  0  0  0  0  0
   -2.0097    1.5254   -0.0174 C   0  0  0  0  0  0
   -2.4271    2.8844   -0.0944 O   0  0  0  0  0  0
   -0.3322   -0.5236   -0.9978 H   0  0  0  0  0  0
   -0.2561   -0.4277    0.7556 H   0  0  0  0  0  0
    1.9580    0.5625   -1.1193 H   0  0  0  0  0  0
    1.9909    0.6302    0.6366 H   0  0  0  0  0  0
    1.7205   -1.9387    0.6417 H   0  0  0  0  0  0
    1.9548   -1.8899   -1.1009 H   0  0  0  0  0  0
    4.0960   -2.4218   -0.0646 H   0  0  0  0  0  0
    4.2214   -0.7619   -0.7009 H   0  0  0  0  0  0
   -0.0383    2.1089    0.5634 H   0  0  0  0  0  0
   -0.2626    1.9641   -1.1748 H   0  0  0  0  0  0
   -2.5019    0.9078   -0.7883 H   0  0  0  0  0  0
   -2.2614    1.0820    0.9612 H   0  0  0  0  0  0
   -3.3799    2.9150    0.0565 H   0  0  0  0  0  0
  1  2  1  0  0  0
  1  6  1  0  0  0
  1  9  1  0  0  0
  1 10  1  0  0  0
  2  3  1  0  0  0
  2 11  1  0  0  0
  2 12  1  0  0  0
  3  4  1  0  0  0
  3 13  1  0  0  0
  3 14  1  0  0  0
  4  5  1  0  0  0
  4 15  1  0  0  0
  4 16  1  0  0  0
  6  7  1  0  0  0
  6 17  1  0  0  0
  6 18  1  0  0  0
  7  8  1  0  0  0
  7 19  1  0  0  0
  7 20  1  0  0  0
  8 21  1  0  0  0
M  END
>  <i_m_Spin_multiplicity> (1)
1

>  <s_j_Task> (1)
Single Point

>  <s_j_QM_Method> (1)
DFT(b3lyp-d3)

>  <s_j_QM_Basis> (1)
cc-pvtz(-f)

>  <i_j_Number_of_canonical_orbitals> (1)
313

>  <i_j_Geometry_convergence_category> (1)
4

>  <r_j_Gas_Phase_Energy> (1)
-2886.05147164607

>  <r_j_Final_Energy> (1)
-2886.05147164607

>  <r_j_HOMO> (1)
-0.265464992131043

>  <r_j_LUMO> (1)
-0.0261791507027465

>  <r_j_Polarizability> (1)
96.9715940306985

>  <r_j_QM_Dipole_(debye)> (1)
2.95854524770867

>  <r_j_QM_Dipole_X_(debye)> (1)
-1.84607795291522

>  <r_j_QM_Dipole_Y_(debye)> (1)
-1.6499271859835

>  <r_j_QM_Dipole_Z_(debye)> (1)
-1.61948339153339

>  <r_j_Lowest_Frequency_(cm-1)> (1)
-801.946553533975

>  <r_j_Highest_Frequency_(cm-1)> (1)
3775.13105828151

>  <r_j_2nd_Lowest_Frequency_(cm-1)> (1)
116.701177033749

>  <i_j_Num_Negative_Frequencies> (1)
1

>  <r_j_Zero_Point_Energy_(kcal/mol)> (1)
116.747824592361

>  <r_j_Entropy_(cal/mol/K)_298.15K_1.00E+00atm> (1)
92.8457687378968

>  <r_j_Enthalpy_(kcal/mol)_298.15K_1.00E+00atm> (1)
5.94494107881024

>  <r_j_Free_Energy_(kcal/mol)_298.15K_1.00E+00atm> (1)
-21.7370248703937

>  <r_j_Internal_Energy_(kcal/mol)_298.15K_1.00E+00atm> (1)
5.35245548998296

>  <r_j_Heat_Capacity_(cal/mol/K)_298.15K_1.00E+00atm> (1)
32.1952034464727

>  <r_j_ln(Q)_298.15K_1.00E+00atm> (1)
36.6878541525685

>  <r_j_Total_Internal_Energy_(au)_298.15K_1.00E+00atm> (1)
-2885.85689246294

>  <r_j_Total_Enthalpy_(au)_298.15K_1.00E+00atm> (1)
-2885.85594827705

>  <r_j_Total_Free_Energy_(au)_298.15K_1.00E+00atm> (1)
-2885.90006229807

>  <r_lp_tautomer_probability> (1)
1

>  <r_epik_Ionization_Penalty> (1)
  0.0000

>  <r_epik_Ionization_Penalty_Charging> (1)
  0.0000

>  <r_epik_Ionization_Penalty_Neutral> (1)
  0.0000

>  <r_epik_State_Penalty> (1)
  0.0000

>  <r_epik_Charging_Adjusted_Penalty> (1)
0

>  <i_epik_Tot_Q> (1)
0

>  <i_epik_Tot_abs_Q> (1)
0

>  <s_lp_Force_Field> (1)
S-OPLS

>  <r_lp_Energy> (1)
2.62889

>  <b_lp_Chiralities_Consistent> (1)
1

$$$$
