5352426_Tin
                    3D
 Schrodinger Suite 2021-3.
  1  0  0  0  1  0            999 V2000
    0.0000    0.0000    0.0000 Sn  0  0  0  0  0  0
M  END
>  <i_m_Spin_multiplicity> (1)
1

>  <s_j_Task> (1)
Single Point

>  <s_j_QM_Method> (1)
DFT(b3lyp-d3)

>  <s_j_QM_Basis> (1)
lacv3p**

>  <i_j_Number_of_canonical_orbitals> (1)
9

>  <r_j_Gas_Phase_Energy> (1)
-3.28378418120376

>  <r_j_Final_Energy> (1)
-3.28378418120376

>  <r_j_HOMO> (1)
-0.139802513185993

>  <r_j_LUMO> (1)
-0.114576448034028

>  <r_j_Polarizability> (1)
19.3398701507886

>  <r_j_QM_Dipole_(debye)> (1)
0

>  <r_j_QM_Dipole_X_(debye)> (1)
0

>  <r_j_QM_Dipole_Y_(debye)> (1)
0

>  <r_j_QM_Dipole_Z_(debye)> (1)
0

>  <r_j_Zero_Point_Energy_(kcal/mol)> (1)
0

>  <r_j_Entropy_(cal/mol/K)_298.15K_1.00E+00atm> (1)
40.259089597247

>  <r_j_Enthalpy_(kcal/mol)_298.15K_1.00E+00atm> (1)
1.48121397206819

>  <r_j_Free_Energy_(kcal/mol)_298.15K_1.00E+00atm> (1)
-10.522033591351

>  <r_j_Internal_Energy_(kcal/mol)_298.15K_1.00E+00atm> (1)
0.888728383240912

>  <r_j_Heat_Capacity_(cal/mol/K)_298.15K_1.00E+00atm> (1)
2.98080960335707

>  <r_j_ln(Q)_298.15K_1.00E+00atm> (1)
17.7591384326792

>  <r_j_Total_Internal_Energy_(au)_298.15K_1.00E+00atm> (1)
-3.28236790236538

>  <r_j_Total_Enthalpy_(au)_298.15K_1.00E+00atm> (1)
-3.28142371647313

>  <r_j_Total_Free_Energy_(au)_298.15K_1.00E+00atm> (1)
-3.30055210917041

$$$$
