5357696_Rubidium
                    3D
 Schrodinger Suite 2021-3.
  1  0  0  0  1  0            999 V2000
    0.0000    0.0000    0.0000 Rb  0  0  0  0  0  0
M  END
>  <i_m_Spin_multiplicity> (1)
2

>  <s_j_Task> (1)
Single Point

>  <s_j_QM_Method> (1)
UDFT(b3lyp-d3)

>  <s_j_QM_Basis> (1)
lacv3p**

>  <i_j_Number_of_canonical_orbitals> (1)
16

>  <r_j_Gas_Phase_Energy> (1)
-23.8649167989538

>  <r_j_Final_Energy> (1)
-23.8649167989538

>  <r_j_Polarizability> (1)
295.33183963007

>  <r_j_QM_Dipole_(debye)> (1)
0

>  <r_j_QM_Dipole_X_(debye)> (1)
0

>  <r_j_QM_Dipole_Y_(debye)> (1)
0

>  <r_j_QM_Dipole_Z_(debye)> (1)
0

>  <r_j_Zero_Point_Energy_(kcal/mol)> (1)
0

>  <r_j_Entropy_(cal/mol/K)_298.15K_1.00E+00atm> (1)
40.6079477062129

>  <r_j_Enthalpy_(kcal/mol)_298.15K_1.00E+00atm> (1)
1.48121397206819

>  <r_j_Free_Energy_(kcal/mol)_298.15K_1.00E+00atm> (1)
-10.6260456365392

>  <r_j_Internal_Energy_(kcal/mol)_298.15K_1.00E+00atm> (1)
0.888728383240912

>  <r_j_Heat_Capacity_(cal/mol/K)_298.15K_1.00E+00atm> (1)
2.98080960335707

>  <r_j_ln(Q)_298.15K_1.00E+00atm> (1)
17.9346904581623

>  <r_j_Total_Internal_Energy_(au)_298.15K_1.00E+00atm> (1)
-23.8635005201155

>  <r_j_Total_Enthalpy_(au)_298.15K_1.00E+00atm> (1)
-23.8625563342232

>  <r_j_Total_Free_Energy_(au)_298.15K_1.00E+00atm> (1)
-23.8818504806663

>  <r_j_alpha_HOMO> (1)
-0.102705786791611

>  <r_j_alpha_LUMO> (1)
-0.0213783714447926

>  <r_j_beta_HOMO> (1)
-0.624273916503462

>  <r_j_beta_LUMO> (1)
-0.0586802791331837

>  <r_j_S2_Value> (1)
0.750047500835258

$$$$
