5359268_Aluminum
                    3D
 Schrodinger Suite 2021-3.
  1  0  0  0  1  0            999 V2000
    0.0000    0.0000    0.0000 Al  0  0  0  0  0  0
M  END
>  <i_m_Spin_multiplicity> (1)
2

>  <s_j_Task> (1)
Single Point

>  <s_j_QM_Method> (1)
UDFT(b3lyp-d3)

>  <s_j_QM_Basis> (1)
cc-pvtz(-f)

>  <i_j_Number_of_canonical_orbitals> (1)
27

>  <r_j_Gas_Phase_Energy> (1)
-242.389505545931

>  <r_j_Final_Energy> (1)
-242.389505545931

>  <r_j_alpha_HOMO> (1)
-0.132200101196949

>  <r_j_alpha_LUMO> (1)
-0.075798802251599

>  <r_j_beta_HOMO> (1)
-0.295389239360874

>  <r_j_beta_LUMO> (1)
-0.0704268031382115

>  <r_j_Polarizability> (1)
44.0125016475594

>  <r_j_QM_Dipole_(debye)> (1)
8.79360311726823e-08

>  <r_j_QM_Dipole_X_(debye)> (1)
1.22442444185896e-09

>  <r_j_QM_Dipole_Y_(debye)> (1)
3.99056598828131e-08

>  <r_j_QM_Dipole_Z_(debye)> (1)
-7.83503967603635e-08

>  <r_j_Zero_Point_Energy_(kcal/mol)> (1)
0

>  <r_j_Entropy_(cal/mol/K)_298.15K_1.00E+00atm> (1)
37.1905685063244

>  <r_j_Enthalpy_(kcal/mol)_298.15K_1.00E+00atm> (1)
1.48121397206819

>  <r_j_Free_Energy_(kcal/mol)_298.15K_1.00E+00atm> (1)
-9.60715402809242

>  <r_j_Internal_Energy_(kcal/mol)_298.15K_1.00E+00atm> (1)
0.888728383240912

>  <r_j_Heat_Capacity_(cal/mol/K)_298.15K_1.00E+00atm> (1)
2.98080960335707

>  <r_j_ln(Q)_298.15K_1.00E+00atm> (1)
16.2150003464357

>  <r_j_Total_Internal_Energy_(au)_298.15K_1.00E+00atm> (1)
-242.388089267093

>  <r_j_Total_Enthalpy_(au)_298.15K_1.00E+00atm> (1)
-242.3871450812

>  <r_j_Total_Free_Energy_(au)_298.15K_1.00E+00atm> (1)
-242.404815520501

>  <r_j_S2_Value> (1)
0.75474477810826

$$$$
