53687588_2-pentacosenoic acid
                    3D
 Schrodinger Suite 2021-3.
 74 73  0  0  1  0            999 V2000
  -11.1267    7.1520   -0.2168 C   0  0  0  0  0  0
  -10.2881    5.8740   -0.1235 C   0  0  0  0  0  0
   -8.7777    6.1399   -0.1327 C   0  0  0  0  0  0
   -7.9400    4.8603   -0.0370 C   0  0  0  0  0  0
   -6.4262    5.1028   -0.0641 C   0  0  0  0  0  0
   -5.6160    3.8054    0.0305 C   0  0  0  0  0  0
   -4.0969    4.0041   -0.0326 C   0  0  0  0  0  0
   -3.3297    2.6802    0.0534 C   0  0  0  0  0  0
   -1.8067    2.8157   -0.0627 C   0  0  0  0  0  0
   -1.0990    1.4580    0.0068 C   0  0  0  0  0  0
    0.4226    1.5134   -0.1737 C   0  0  0  0  0  0
    1.0560    0.1180   -0.1260 C   0  0  0  0  0  0
    2.5716    0.0949   -0.3668 C   0  0  0  0  0  0
    3.1790   -1.3166   -0.2815 C   0  0  0  0  0  0
    2.7414   -2.2536   -1.4180 C   0  0  0  0  0  0
    3.2310   -3.7041   -1.2797 C   0  0  0  0  0  0
    2.7097   -4.4147   -0.0205 C   0  0  0  0  0  0
    2.8282   -5.9426   -0.0722 C   0  0  0  0  0  0
    2.4138   -6.6176    1.2415 C   0  0  0  0  0  0
    2.2757   -8.1400    1.1400 C   0  0  0  0  0  0
    1.9868   -8.8133    2.4874 C   0  0  0  0  0  0
    1.5241  -10.2811    2.3408 C   0  0  0  0  0  0
    0.1503  -10.3845    1.7334 C   0  0  0  0  0  0
   -0.1524  -10.8544    0.5195 C   0  0  0  0  0  0
   -1.5848  -10.8677   -0.0603 C   0  0  0  0  0  0
   -1.6595  -11.3293   -1.2288 O   0  0  0  0  0  0
   -2.4885  -10.4165    0.6911 O   0  5  0  0  0  0
  -12.1995    6.9316   -0.2108 H   0  0  0  0  0  0
  -10.9044    7.7027   -1.1383 H   0  0  0  0  0  0
  -10.9189    7.8223    0.6253 H   0  0  0  0  0  0
  -10.5525    5.3264    0.7915 H   0  0  0  0  0  0
  -10.5411    5.2065   -0.9585 H   0  0  0  0  0  0
   -8.5107    6.6842   -1.0502 H   0  0  0  0  0  0
   -8.5208    6.8091    0.7013 H   0  0  0  0  0  0
   -8.2042    4.3228    0.8850 H   0  0  0  0  0  0
   -8.2112    4.1887   -0.8642 H   0  0  0  0  0  0
   -6.1587    5.6345   -0.9887 H   0  0  0  0  0  0
   -6.1466    5.7720    0.7624 H   0  0  0  0  0  0
   -5.8744    3.2850    0.9639 H   0  0  0  0  0  0
   -5.9219    3.1312   -0.7824 H   0  0  0  0  0  0
   -3.8351    4.5194   -0.9681 H   0  0  0  0  0  0
   -3.7773    4.6706    0.7815 H   0  0  0  0  0  0
   -3.5768    2.1806    1.0011 H   0  0  0  0  0  0
   -3.6875    2.0084   -0.7400 H   0  0  0  0  0  0
   -1.5558    3.3127   -1.0111 H   0  0  0  0  0  0
   -1.4304    3.4729    0.7345 H   0  0  0  0  0  0
   -1.3310    0.9790    0.9688 H   0  0  0  0  0  0
   -1.5219    0.7976   -0.7639 H   0  0  0  0  0  0
    0.6591    1.9920   -1.1352 H   0  0  0  0  0  0
    0.8673    2.1530    0.6025 H   0  0  0  0  0  0
    0.8425   -0.3427    0.8492 H   0  0  0  0  0  0
    0.5558   -0.5141   -0.8702 H   0  0  0  0  0  0
    2.7922    0.5339   -1.3509 H   0  0  0  0  0  0
    3.0591    0.7453    0.3728 H   0  0  0  0  0  0
    4.2755   -1.2459   -0.2830 H   0  0  0  0  0  0
    2.9050   -1.7555    0.6864 H   0  0  0  0  0  0
    1.6457   -2.2747   -1.4759 H   0  0  0  0  0  0
    3.0877   -1.8349   -2.3736 H   0  0  0  0  0  0
    2.9035   -4.2649   -2.1653 H   0  0  0  0  0  0
    4.3302   -3.7341   -1.2913 H   0  0  0  0  0  0
    3.2409   -4.0409    0.8653 H   0  0  0  0  0  0
    1.6524   -4.1517    0.1302 H   0  0  0  0  0  0
    2.2011   -6.3222   -0.8907 H   0  0  0  0  0  0
    3.8601   -6.2290   -0.3233 H   0  0  0  0  0  0
    3.1409   -6.3551    2.0253 H   0  0  0  0  0  0
    1.4514   -6.2012    1.5726 H   0  0  0  0  0  0
    1.4640   -8.3864    0.4446 H   0  0  0  0  0  0
    3.1923   -8.5700    0.7086 H   0  0  0  0  0  0
    2.8821   -8.7554    3.1249 H   0  0  0  0  0  0
    1.1988   -8.2516    3.0098 H   0  0  0  0  0  0
    2.2544  -10.8300    1.7290 H   0  0  0  0  0  0
    1.5383  -10.7477    3.3387 H   0  0  0  0  0  0
   -0.6872   -9.9981    2.3179 H   0  0  0  0  0  0
    0.6316  -11.2536   -0.1303 H   0  0  0  0  0  0
  1  2  1  0  0  0
  1 28  1  0  0  0
  1 29  1  0  0  0
  1 30  1  0  0  0
  2  3  1  0  0  0
  2 31  1  0  0  0
  2 32  1  0  0  0
  3  4  1  0  0  0
  3 33  1  0  0  0
  3 34  1  0  0  0
  4  5  1  0  0  0
  4 35  1  0  0  0
  4 36  1  0  0  0
  5  6  1  0  0  0
  5 37  1  0  0  0
  5 38  1  0  0  0
  6  7  1  0  0  0
  6 39  1  0  0  0
  6 40  1  0  0  0
  7  8  1  0  0  0
  7 41  1  0  0  0
  7 42  1  0  0  0
  8  9  1  0  0  0
  8 43  1  0  0  0
  8 44  1  0  0  0
  9 10  1  0  0  0
  9 45  1  0  0  0
  9 46  1  0  0  0
 10 11  1  0  0  0
 10 47  1  0  0  0
 10 48  1  0  0  0
 11 12  1  0  0  0
 11 49  1  0  0  0
 11 50  1  0  0  0
 12 13  1  0  0  0
 12 51  1  0  0  0
 12 52  1  0  0  0
 13 14  1  0  0  0
 13 53  1  0  0  0
 13 54  1  0  0  0
 14 15  1  0  0  0
 14 55  1  0  0  0
 14 56  1  0  0  0
 15 16  1  0  0  0
 15 57  1  0  0  0
 15 58  1  0  0  0
 16 17  1  0  0  0
 16 59  1  0  0  0
 16 60  1  0  0  0
 17 18  1  0  0  0
 17 61  1  0  0  0
 17 62  1  0  0  0
 18 19  1  0  0  0
 18 63  1  0  0  0
 18 64  1  0  0  0
 19 20  1  0  0  0
 19 65  1  0  0  0
 19 66  1  0  0  0
 20 21  1  0  0  0
 20 67  1  0  0  0
 20 68  1  0  0  0
 21 22  1  0  0  0
 21 69  1  0  0  0
 21 70  1  0  0  0
 22 23  1  0  0  0
 22 71  1  0  0  0
 22 72  1  0  0  0
 23 24  2  0  0  0
 23 73  1  0  0  0
 24 25  1  0  0  0
 24 74  1  0  0  0
 25 26  2  0  0  0
 25 27  1  0  0  0
M  END
>  <s_lp_Force_Field> (1)
S-OPLS

>  <r_lp_Energy> (1)
15.8429

>  <b_lp_Chiralities_Consistent> (1)
1

>  <r_epik_Ionization_Penalty> (1)
  0.0030

>  <r_epik_Ionization_Penalty_Charging> (1)
  0.0030

>  <r_epik_Ionization_Penalty_Neutral> (1)
  0.0000

>  <r_epik_State_Penalty> (1)
  0.0021

>  <r_epik_Charging_Adjusted_Penalty> (1)
0.00507067

>  <i_epik_Tot_Q> (1)
-1

>  <i_epik_Tot_abs_Q> (1)
1

>  <i_m_Spin_multiplicity> (1)
1

>  <s_j_Task> (1)
Single Point

>  <s_j_QM_Method> (1)
DFT(b3lyp-d3)

>  <s_j_QM_Basis> (1)
6-31g**

>  <i_j_Number_of_canonical_orbitals> (1)
640

>  <i_j_Geometry_convergence_category> (1)
4

>  <r_j_Gas_Phase_Energy> (1)
-1131.6190802899

>  <r_j_Final_Energy> (1)
-1131.6190802899

>  <r_j_HOMO> (1)
-0.0116883756214832

>  <r_j_LUMO> (1)
0.122516490024118

>  <r_j_Polarizability> (1)
282.637859318192

>  <r_j_QM_Dipole_(debye)> (1)
39.755395737289

>  <r_j_QM_Dipole_X_(debye)> (1)
0.957481673799821

>  <r_j_QM_Dipole_Y_(debye)> (1)
39.7273180124158

>  <r_j_QM_Dipole_Z_(debye)> (1)
1.14670075136216

>  <r_j_Lowest_Frequency_(cm-1)> (1)
-16.1284967894162

>  <r_j_Highest_Frequency_(cm-1)> (1)
3128.98275215986

>  <r_j_2nd_Lowest_Frequency_(cm-1)> (1)
9.53633361392962

>  <i_j_Num_Negative_Frequencies> (1)
1

>  <r_j_Zero_Point_Energy_(kcal/mol)> (1)
429.445504159622

>  <r_j_Entropy_(cal/mol/K)_298.15K_1.00E+00atm> (1)
198.59895246977

>  <r_j_Enthalpy_(kcal/mol)_298.15K_1.00E+00atm> (1)
20.4992343734279

>  <r_j_Free_Energy_(kcal/mol)_298.15K_1.00E+00atm> (1)
-38.7130433054339

>  <r_j_Internal_Energy_(kcal/mol)_298.15K_1.00E+00atm> (1)
19.9067487846007

>  <r_j_Heat_Capacity_(cal/mol/K)_298.15K_1.00E+00atm> (1)
119.272860171592

>  <r_j_ln(Q)_298.15K_1.00E+00atm> (1)
65.3400589574842

>  <r_j_Total_Internal_Energy_(au)_298.15K_1.00E+00atm> (1)
-1130.90299188896

>  <r_j_Total_Enthalpy_(au)_298.15K_1.00E+00atm> (1)
-1130.90204770307

>  <r_j_Total_Free_Energy_(au)_298.15K_1.00E+00atm> (1)
-1130.99640847451

$$$$
