5370622_trans-1-Phenyl-1-butene
                    3D
 Schrodinger Suite 2021-3.
 22 22  0  0  1  0            999 V2000
   -0.6826    1.4467   -0.1621 C   0  0  0  0  0  0
   -0.0505    0.0835    0.1702 C   0  0  0  0  0  0
    1.4486    0.1142    0.0826 C   0  0  0  0  0  0
    2.2790   -0.1155    1.1095 C   0  0  0  0  0  0
    3.7498   -0.0769    1.0978 C   0  0  0  0  0  0
    4.5105   -0.0038   -0.0838 C   0  0  0  0  0  0
    5.9000    0.0417   -0.0383 C   0  0  0  0  0  0
    6.5702    0.0094    1.1873 C   0  0  0  0  0  0
    5.8328   -0.0728    2.3680 C   0  0  0  0  0  0
    4.4409   -0.1181    2.3213 C   0  0  0  0  0  0
   -1.7755    1.3947   -0.1255 H   0  0  0  0  0  0
   -0.3957    1.7791   -1.1659 H   0  0  0  0  0  0
   -0.3511    2.2112    0.5478 H   0  0  0  0  0  0
   -0.3590   -0.2358    1.1731 H   0  0  0  0  0  0
   -0.4425   -0.6680   -0.5306 H   0  0  0  0  0  0
    1.8555    0.3766   -0.8944 H   0  0  0  0  0  0
    1.8352   -0.3421    2.0798 H   0  0  0  0  0  0
    4.0108    0.0031   -1.0473 H   0  0  0  0  0  0
    6.4654    0.0946   -0.9645 H   0  0  0  0  0  0
    7.6552    0.0414    1.2189 H   0  0  0  0  0  0
    6.3411   -0.1030    3.3277 H   0  0  0  0  0  0
    3.8737   -0.1809    3.2470 H   0  0  0  0  0  0
  1  2  1  0  0  0
  1 11  1  0  0  0
  1 12  1  0  0  0
  1 13  1  0  0  0
  2  3  1  0  0  0
  2 14  1  0  0  0
  2 15  1  0  0  0
  3  4  2  0  0  0
  3 16  1  0  0  0
  4  5  1  0  0  0
  4 17  1  0  0  0
  5 10  1  0  0  0
  5  6  2  0  0  0
  6  7  1  0  0  0
  6 18  1  0  0  0
  7  8  2  0  0  0
  7 19  1  0  0  0
  8  9  1  0  0  0
  8 20  1  0  0  0
  9 10  2  0  0  0
  9 21  1  0  0  0
 10 22  1  0  0  0
M  END
>  <i_m_Spin_multiplicity> (1)
1

>  <s_j_Task> (1)
Single Point

>  <s_j_QM_Method> (1)
DFT(b3lyp-d3)

>  <s_j_QM_Basis> (1)
cc-pvtz(-f)

>  <i_j_Number_of_canonical_orbitals> (1)
331

>  <i_j_Geometry_convergence_category> (1)
0

>  <r_j_Gas_Phase_Energy> (1)
-388.420731214734

>  <r_j_Final_Energy> (1)
-388.420731214734

>  <r_j_HOMO> (1)
-0.227184187678884

>  <r_j_LUMO> (1)
-0.0429596571007179

>  <r_j_Polarizability> (1)
122.673846590288

>  <r_j_QM_Dipole_(debye)> (1)
0.455750623122657

>  <r_j_QM_Dipole_X_(debye)> (1)
-0.423817591303053

>  <r_j_QM_Dipole_Y_(debye)> (1)
0.0492665988382051

>  <r_j_QM_Dipole_Z_(debye)> (1)
-0.160187646270503

>  <r_j_Lowest_Frequency_(cm-1)> (1)
82.9570117400941

>  <r_j_Highest_Frequency_(cm-1)> (1)
3149.34547371055

>  <r_j_2nd_Lowest_Frequency_(cm-1)> (1)
104.525554145705

>  <i_j_Num_Negative_Frequencies> (1)
0

>  <r_j_Zero_Point_Energy_(kcal/mol)> (1)
118.849611937447

>  <r_j_Entropy_(cal/mol/K)_298.15K_1.00E+00atm> (1)
93.3404975057031

>  <r_j_Enthalpy_(kcal/mol)_298.15K_1.00E+00atm> (1)
6.32615379559133

>  <r_j_Free_Energy_(kcal/mol)_298.15K_1.00E+00atm> (1)
-21.503315535734

>  <r_j_Internal_Energy_(kcal/mol)_298.15K_1.00E+00atm> (1)
5.73366820676405

>  <r_j_Heat_Capacity_(cal/mol/K)_298.15K_1.00E+00atm> (1)
35.6170513430459

>  <r_j_ln(Q)_298.15K_1.00E+00atm> (1)
36.2933984239115

>  <r_j_Total_Internal_Energy_(au)_298.15K_1.00E+00atm> (1)
-388.222195119105

>  <r_j_Total_Enthalpy_(au)_298.15K_1.00E+00atm> (1)
-388.221250933213

>  <r_j_Total_Free_Energy_(au)_298.15K_1.00E+00atm> (1)
-388.265600015835

>  <r_lp_tautomer_probability> (1)
1

>  <r_epik_Ionization_Penalty> (1)
  0.0000

>  <r_epik_Ionization_Penalty_Charging> (1)
  0.0000

>  <r_epik_Ionization_Penalty_Neutral> (1)
  0.0000

>  <r_epik_State_Penalty> (1)
  0.0000

>  <r_epik_Charging_Adjusted_Penalty> (1)
0

>  <i_epik_Tot_Q> (1)
0

>  <i_epik_Tot_abs_Q> (1)
0

>  <s_lp_Force_Field> (1)
S-OPLS

>  <r_lp_Energy> (1)
8.753635

>  <b_lp_Chiralities_Consistent> (1)
1

$$$$
