53703939_Stigmastan-3-one
                    3D
 Schrodinger Suite 2021-3.
 80 83  0  0  1  0            999 V2000
   -0.5627   -2.1850    0.4716 C   0  0  0  0  0  0
   -1.0121   -0.7513    0.7766 C   0  0  0  0  0  0
   -0.3337    0.3427   -0.0821 C   0  0  0  0  0  0
    1.2046    0.1905   -0.1121 C   0  0  0  0  0  0
    1.9116    0.4064    1.2341 C   0  0  0  0  0  0
    3.4319    0.1219    1.1795 C   0  0  0  0  0  0
    3.6869   -1.3946    1.1438 C   0  0  0  0  0  0
    4.1668    0.8817    2.3198 C   0  0  0  0  0  0
    3.8327    0.3384    3.7376 C   0  0  0  0  0  0
    5.0699   -0.4650    4.2142 C   0  0  0  0  0  0
    6.1512   -0.3439    3.1063 C   0  0  0  0  0  0
    5.7340    0.9091    2.2775 C   0  0  0  0  0  0
    6.2138    2.1845    3.0181 C   0  0  0  0  0  0
    7.6949    2.1573    3.4211 C   0  0  0  0  0  0
    7.9896    0.9702    4.3609 C   0  0  0  0  0  0
    7.5918   -0.3679    3.6738 C   0  0  0  0  0  0
    8.6373   -0.8126    2.6311 C   0  0  0  0  0  0
   10.0478   -0.8916    3.2242 C   0  0  0  0  0  0
   10.4498    0.4454    3.8603 C   0  0  0  0  0  0
    9.4426    0.9111    4.9553 C   0  0  0  0  0  0
    9.8976    2.3091    5.4443 C   0  0  0  0  0  0
   11.3370    2.3306    5.9975 C   0  0  0  0  0  0
   12.3296    1.7335    5.0098 C   0  0  0  0  0  0
   13.3885    2.2723    4.7469 O   0  0  0  0  0  0
   11.9067    0.4191    4.3701 C   0  0  0  0  0  0
    9.4199   -0.0495    6.1685 C   0  0  0  0  0  0
    6.2819    0.9375    0.8408 C   0  0  0  0  0  0
   -0.7963    1.7652    0.3431 C   0  0  0  0  0  0
   -2.3176    1.9434    0.1988 C   0  0  0  0  0  0
   -0.0800    2.8735   -0.4465 C   0  0  0  0  0  0
   -1.1883   -2.9092    1.0032 H   0  0  0  0  0  0
    0.4738   -2.3651    0.7733 H   0  0  0  0  0  0
   -0.6391   -2.4041   -0.6001 H   0  0  0  0  0  0
   -2.0951   -0.6945    0.6275 H   0  0  0  0  0  0
   -0.8454   -0.5368    1.8410 H   0  0  0  0  0  0
   -0.6765    0.1957   -1.1196 H   0  0  0  0  0  0
    1.4445   -0.8044   -0.5012 H   0  0  0  0  0  0
    1.6237    0.8893   -0.8451 H   0  0  0  0  0  0
    1.7494    1.4412    1.5598 H   0  0  0  0  0  0
    1.4504   -0.2254    2.0040 H   0  0  0  0  0  0
    3.7922    0.5419    0.2308 H   0  0  0  0  0  0
    3.4544   -1.8603    2.1080 H   0  0  0  0  0  0
    4.7236   -1.6348    0.9000 H   0  0  0  0  0  0
    3.0603   -1.8796    0.3890 H   0  0  0  0  0  0
    3.8222    1.9214    2.2325 H   0  0  0  0  0  0
    3.6290    1.1666    4.4231 H   0  0  0  0  0  0
    2.9261   -0.2730    3.7331 H   0  0  0  0  0  0
    5.4438   -0.0655    5.1629 H   0  0  0  0  0  0
    4.8317   -1.5175    4.4004 H   0  0  0  0  0  0
    6.0598   -1.2197    2.4548 H   0  0  0  0  0  0
    6.0126    3.0600    2.3873 H   0  0  0  0  0  0
    5.6196    2.3258    3.9302 H   0  0  0  0  0  0
    8.3346    2.1204    2.5316 H   0  0  0  0  0  0
    7.9253    3.1032    3.9194 H   0  0  0  0  0  0
    7.3218    1.1064    5.2242 H   0  0  0  0  0  0
    7.5867   -1.1493    4.4459 H   0  0  0  0  0  0
    8.3427   -1.7858    2.2194 H   0  0  0  0  0  0
    8.6531   -0.1190    1.7841 H   0  0  0  0  0  0
   10.0998   -1.6915    3.9751 H   0  0  0  0  0  0
   10.7718   -1.1575    2.4439 H   0  0  0  0  0  0
   10.4108    1.2027    3.0625 H   0  0  0  0  0  0
    9.8586    3.0163    4.6097 H   0  0  0  0  0  0
    9.2008    2.6847    6.2043 H   0  0  0  0  0  0
   11.6609    3.3475    6.2339 H   0  0  0  0  0  0
   11.3980    1.7473    6.9259 H   0  0  0  0  0  0
   12.0209   -0.3754    5.1212 H   0  0  0  0  0  0
   12.6046    0.1959    3.5579 H   0  0  0  0  0  0
   10.4040   -0.1772    6.6252 H   0  0  0  0  0  0
    9.0618   -1.0462    5.9059 H   0  0  0  0  0  0
    8.7519    0.3455    6.9419 H   0  0  0  0  0  0
    7.3528    1.1504    0.8159 H   0  0  0  0  0  0
    5.7885    1.7257    0.2604 H   0  0  0  0  0  0
    6.1277   -0.0102    0.3180 H   0  0  0  0  0  0
   -0.5467    1.8949    1.4065 H   0  0  0  0  0  0
   -2.6331    1.7572   -0.8355 H   0  0  0  0  0  0
   -2.6133    2.9661    0.4554 H   0  0  0  0  0  0
   -2.8826    1.2691    0.8471 H   0  0  0  0  0  0
   -0.2186    2.7343   -1.5260 H   0  0  0  0  0  0
    0.9951    2.9004   -0.2491 H   0  0  0  0  0  0
   -0.4846    3.8570   -0.1854 H   0  0  0  0  0  0
  1  2  1  0  0  0
  1 31  1  0  0  0
  1 32  1  0  0  0
  1 33  1  0  0  0
  2  3  1  0  0  0
  2 34  1  0  0  0
  2 35  1  0  0  0
  3  4  1  0  0  0
  3 28  1  0  0  0
  3 36  1  0  0  0
  4  5  1  0  0  0
  4 37  1  0  0  0
  4 38  1  0  0  0
  5  6  1  0  0  0
  5 39  1  0  0  0
  5 40  1  0  0  0
  6  7  1  0  0  0
  6  8  1  0  0  0
  6 41  1  0  0  0
  7 42  1  0  0  0
  7 43  1  0  0  0
  7 44  1  0  0  0
  8 12  1  0  0  0
  8  9  1  0  0  0
  8 45  1  0  0  0
  9 10  1  0  0  0
  9 46  1  0  0  0
  9 47  1  0  0  0
 10 11  1  0  0  0
 10 48  1  0  0  0
 10 49  1  0  0  0
 11 16  1  0  0  0
 11 12  1  0  0  0
 11 50  1  0  0  0
 12 13  1  0  0  0
 12 27  1  0  0  0
 13 14  1  0  0  0
 13 51  1  0  0  0
 13 52  1  0  0  0
 14 15  1  0  0  0
 14 53  1  0  0  0
 14 54  1  0  0  0
 15 20  1  0  0  0
 15 16  1  0  0  0
 15 55  1  0  0  0
 16 17  1  0  0  0
 16 56  1  0  0  0
 17 18  1  0  0  0
 17 57  1  0  0  0
 17 58  1  0  0  0
 18 19  1  0  0  0
 18 59  1  0  0  0
 18 60  1  0  0  0
 19 25  1  0  0  0
 19 20  1  0  0  0
 19 61  1  0  0  0
 20 21  1  0  0  0
 20 26  1  0  0  0
 21 22  1  0  0  0
 21 62  1  0  0  0
 21 63  1  0  0  0
 22 23  1  0  0  0
 22 64  1  0  0  0
 22 65  1  0  0  0
 23 24  2  0  0  0
 23 25  1  0  0  0
 25 66  1  0  0  0
 25 67  1  0  0  0
 26 68  1  0  0  0
 26 69  1  0  0  0
 26 70  1  0  0  0
 27 71  1  0  0  0
 27 72  1  0  0  0
 27 73  1  0  0  0
 28 29  1  0  0  0
 28 30  1  0  0  0
 28 74  1  0  0  0
 29 75  1  0  0  0
 29 76  1  0  0  0
 29 77  1  0  0  0
 30 78  1  0  0  0
 30 79  1  0  0  0
 30 80  1  0  0  0
M  END
>  <i_m_Spin_multiplicity> (1)
1

>  <s_j_Task> (1)
Single Point

>  <s_j_QM_Method> (1)
DFT(b3lyp-d3)

>  <s_j_QM_Basis> (1)
cc-pvtz(-f)

>  <i_j_Number_of_canonical_orbitals> (1)
1121

>  <i_j_Geometry_convergence_category> (1)
1

>  <r_j_Gas_Phase_Energy> (1)
-1210.94246996332

>  <r_j_Final_Energy> (1)
-1210.94246996332

>  <r_j_HOMO> (1)
-0.259918084159029

>  <r_j_LUMO> (1)
-0.0398227373875948

>  <r_j_Polarizability> (1)
330.036454111819

>  <r_j_QM_Dipole_(debye)> (1)
3.5897292347633

>  <r_j_QM_Dipole_X_(debye)> (1)
-3.30962908684348

>  <r_j_QM_Dipole_Y_(debye)> (1)
-1.34697835463941

>  <r_j_QM_Dipole_Z_(debye)> (1)
0.343744961514764

>  <r_j_Lowest_Frequency_(cm-1)> (1)
36.559809596974

>  <r_j_Highest_Frequency_(cm-1)> (1)
3081.94664291015

>  <r_j_2nd_Lowest_Frequency_(cm-1)> (1)
41.7339177390382

>  <i_j_Num_Negative_Frequencies> (1)
0

>  <r_j_Zero_Point_Energy_(kcal/mol)> (1)
465.696932953274

>  <r_j_Entropy_(cal/mol/K)_298.15K_1.00E+00atm> (1)
177.157845233343

>  <r_j_Enthalpy_(kcal/mol)_298.15K_1.00E+00atm> (1)
18.9806033716951

>  <r_j_Free_Energy_(kcal/mol)_298.15K_1.00E+00atm> (1)
-33.839008184626

>  <r_j_Internal_Energy_(kcal/mol)_298.15K_1.00E+00atm> (1)
18.3881177828678

>  <r_j_Heat_Capacity_(cal/mol/K)_298.15K_1.00E+00atm> (1)
125.099456245801

>  <r_j_ln(Q)_298.15K_1.00E+00atm> (1)
57.1136392559432

>  <r_j_Total_Internal_Energy_(au)_298.15K_1.00E+00atm> (1)
-1210.17103132553

>  <r_j_Total_Enthalpy_(au)_298.15K_1.00E+00atm> (1)
-1210.17008713964

>  <r_j_Total_Free_Energy_(au)_298.15K_1.00E+00atm> (1)
-1210.25426054909

>  <r_lp_tautomer_probability> (1)
1

>  <r_epik_Ionization_Penalty> (1)
  0.0000

>  <r_epik_Ionization_Penalty_Charging> (1)
  0.0000

>  <r_epik_Ionization_Penalty_Neutral> (1)
  0.0000

>  <r_epik_State_Penalty> (1)
  0.0000

>  <r_epik_Charging_Adjusted_Penalty> (1)
0

>  <i_epik_Tot_Q> (1)
0

>  <i_epik_Tot_abs_Q> (1)
0

>  <s_lp_Force_Field> (1)
S-OPLS

>  <r_lp_Energy> (1)
51.980296

>  <b_lp_Chiralities_Consistent> (1)
1

$$$$
