53705_Methyl hentriacontanoate
                    3D
 Schrodinger Suite 2021-3.
 98 97  0  0  1  0            999 V2000
  -16.3014    7.3989   -2.1381 C   0  0  0  0  0  0
  -15.2612    7.9330   -1.1490 C   0  0  0  0  0  0
  -13.8261    7.5246   -1.5035 C   0  0  0  0  0  0
  -12.7833    8.0629   -0.5177 C   0  0  0  0  0  0
  -11.3429    7.6659   -0.8626 C   0  0  0  0  0  0
  -10.3186    8.2232    0.1347 C   0  0  0  0  0  0
   -8.8524    7.9251   -0.2122 C   0  0  0  0  0  0
   -8.4724    6.4382   -0.1739 C   0  0  0  0  0  0
   -6.9690    6.2057   -0.3647 C   0  0  0  0  0  0
   -6.5560    4.7298   -0.3167 C   0  0  0  0  0  0
   -5.0397    4.5311   -0.4245 C   0  0  0  0  0  0
   -4.5952    3.0651   -0.3605 C   0  0  0  0  0  0
   -3.0708    2.9033   -0.3883 C   0  0  0  0  0  0
   -2.5959    1.4473   -0.3171 C   0  0  0  0  0  0
   -1.0686    1.3191   -0.2720 C   0  0  0  0  0  0
   -0.5677   -0.1283   -0.2072 C   0  0  0  0  0  0
    0.9585   -0.2313   -0.1028 C   0  0  0  0  0  0
    1.4776   -1.6732   -0.0615 C   0  0  0  0  0  0
    3.0037   -1.7567    0.0794 C   0  0  0  0  0  0
    3.5608   -3.1863    0.1625 C   0  0  0  0  0  0
    3.3808   -4.0101   -1.1193 C   0  0  0  0  0  0
    4.0158   -5.4032   -1.0404 C   0  0  0  0  0  0
    3.8363   -6.2203   -2.3248 C   0  0  0  0  0  0
    4.4563   -7.6205   -2.2567 C   0  0  0  0  0  0
    4.2699   -8.4241   -3.5489 C   0  0  0  0  0  0
    4.8634   -9.8374   -3.4790 C   0  0  0  0  0  0
    4.7672  -10.6301   -4.7919 C   0  0  0  0  0  0
    3.3324  -10.9340   -5.2434 C   0  0  0  0  0  0
    3.2759  -11.7820   -6.5179 C   0  0  0  0  0  0
    1.8428  -12.0637   -6.9708 C   0  0  0  0  0  0
    1.7773  -12.8847   -8.2417 C   0  0  0  0  0  0
    2.7297  -13.3055   -8.8627 O   0  0  0  0  0  0
    0.4930  -13.0981   -8.6136 O   0  0  0  0  0  0
    0.3256  -13.8700   -9.8153 C   0  0  0  0  0  0
  -17.3157    7.7049   -1.8607 H   0  0  0  0  0  0
  -16.2823    6.3036   -2.1774 H   0  0  0  0  0  0
  -16.1072    7.7680   -3.1519 H   0  0  0  0  0  0
  -15.3238    9.0291   -1.1058 H   0  0  0  0  0  0
  -15.4982    7.5763   -0.1373 H   0  0  0  0  0  0
  -13.7597    6.4277   -1.5437 H   0  0  0  0  0  0
  -13.5875    7.8790   -2.5168 H   0  0  0  0  0  0
  -12.8565    9.1593   -0.4767 H   0  0  0  0  0  0
  -13.0239    7.7071    0.4946 H   0  0  0  0  0  0
  -11.2716    6.5710   -0.9027 H   0  0  0  0  0  0
  -11.0970    8.0242   -1.8730 H   0  0  0  0  0  0
  -10.4517    9.3116    0.2028 H   0  0  0  0  0  0
  -10.5399    7.8286    1.1371 H   0  0  0  0  0  0
   -8.6232    8.3320   -1.2077 H   0  0  0  0  0  0
   -8.2077    8.4692    0.4917 H   0  0  0  0  0  0
   -8.7856    6.0100    0.7896 H   0  0  0  0  0  0
   -9.0254    5.8869   -0.9457 H   0  0  0  0  0  0
   -6.6512    6.6412   -1.3231 H   0  0  0  0  0  0
   -6.4200    6.7573    0.4124 H   0  0  0  0  0  0
   -6.9137    4.2829    0.6221 H   0  0  0  0  0  0
   -7.0593    4.1801   -1.1250 H   0  0  0  0  0  0
   -4.6789    4.9794   -1.3614 H   0  0  0  0  0  0
   -4.5481    5.0904    0.3848 H   0  0  0  0  0  0
   -4.9917    2.6043    0.5557 H   0  0  0  0  0  0
   -5.0411    2.5084   -1.1972 H   0  0  0  0  0  0
   -2.6715    3.3707   -1.2999 H   0  0  0  0  0  0
   -2.6365    3.4643    0.4519 H   0  0  0  0  0  0
   -3.0266    0.9665    0.5730 H   0  0  0  0  0  0
   -2.9869    0.8909   -1.1810 H   0  0  0  0  0  0
   -0.6359    1.8129   -1.1539 H   0  0  0  0  0  0
   -0.6879    1.8720    0.5990 H   0  0  0  0  0  0
   -1.0256   -0.6347    0.6546 H   0  0  0  0  0  0
   -0.9123   -0.6743   -1.0972 H   0  0  0  0  0  0
    1.4171    0.2938   -0.9531 H   0  0  0  0  0  0
    1.2954    0.3025    0.7977 H   0  0  0  0  0  0
    1.0079   -2.2075    0.7772 H   0  0  0  0  0  0
    1.1543   -2.1939   -0.9723 H   0  0  0  0  0  0
    3.4741   -1.2344   -0.7663 H   0  0  0  0  0  0
    3.3038   -1.2040    0.9801 H   0  0  0  0  0  0
    4.6317   -3.1374    0.4022 H   0  0  0  0  0  0
    3.0862   -3.7136    1.0028 H   0  0  0  0  0  0
    2.3125   -4.1195   -1.3476 H   0  0  0  0  0  0
    3.8169   -3.4594   -1.9656 H   0  0  0  0  0  0
    5.0879   -5.3042   -0.8178 H   0  0  0  0  0  0
    3.5809   -5.9542   -0.1941 H   0  0  0  0  0  0
    2.7636   -6.3104   -2.5495 H   0  0  0  0  0  0
    4.2755   -5.6697   -3.1692 H   0  0  0  0  0  0
    5.5288   -7.5353   -2.0303 H   0  0  0  0  0  0
    4.0130   -8.1743   -1.4165 H   0  0  0  0  0  0
    3.1977   -8.4799   -3.7784 H   0  0  0  0  0  0
    4.7311   -7.8794   -4.3859 H   0  0  0  0  0  0
    5.9192   -9.7641   -3.1850 H   0  0  0  0  0  0
    4.3641  -10.4004   -2.6772 H   0  0  0  0  0  0
    5.2859  -10.0774   -5.5883 H   0  0  0  0  0  0
    5.3101  -11.5780   -4.6782 H   0  0  0  0  0  0
    2.7997  -11.4514   -4.4319 H   0  0  0  0  0  0
    2.7879   -9.9958   -5.4133 H   0  0  0  0  0  0
    3.8147  -11.2772   -7.3287 H   0  0  0  0  0  0
    3.7977  -12.7337   -6.3629 H   0  0  0  0  0  0
    1.2769  -12.5973   -6.1964 H   0  0  0  0  0  0
    1.2898  -11.1320   -7.1462 H   0  0  0  0  0  0
   -0.7507  -13.9483   -9.9693 H   0  0  0  0  0  0
    0.7709  -14.8622   -9.7024 H   0  0  0  0  0  0
    0.7999  -13.3703  -10.6643 H   0  0  0  0  0  0
  1  2  1  0  0  0
  1 35  1  0  0  0
  1 36  1  0  0  0
  1 37  1  0  0  0
  2  3  1  0  0  0
  2 38  1  0  0  0
  2 39  1  0  0  0
  3  4  1  0  0  0
  3 40  1  0  0  0
  3 41  1  0  0  0
  4  5  1  0  0  0
  4 42  1  0  0  0
  4 43  1  0  0  0
  5  6  1  0  0  0
  5 44  1  0  0  0
  5 45  1  0  0  0
  6  7  1  0  0  0
  6 46  1  0  0  0
  6 47  1  0  0  0
  7  8  1  0  0  0
  7 48  1  0  0  0
  7 49  1  0  0  0
  8  9  1  0  0  0
  8 50  1  0  0  0
  8 51  1  0  0  0
  9 10  1  0  0  0
  9 52  1  0  0  0
  9 53  1  0  0  0
 10 11  1  0  0  0
 10 54  1  0  0  0
 10 55  1  0  0  0
 11 12  1  0  0  0
 11 56  1  0  0  0
 11 57  1  0  0  0
 12 13  1  0  0  0
 12 58  1  0  0  0
 12 59  1  0  0  0
 13 14  1  0  0  0
 13 60  1  0  0  0
 13 61  1  0  0  0
 14 15  1  0  0  0
 14 62  1  0  0  0
 14 63  1  0  0  0
 15 16  1  0  0  0
 15 64  1  0  0  0
 15 65  1  0  0  0
 16 17  1  0  0  0
 16 66  1  0  0  0
 16 67  1  0  0  0
 17 18  1  0  0  0
 17 68  1  0  0  0
 17 69  1  0  0  0
 18 19  1  0  0  0
 18 70  1  0  0  0
 18 71  1  0  0  0
 19 20  1  0  0  0
 19 72  1  0  0  0
 19 73  1  0  0  0
 20 21  1  0  0  0
 20 74  1  0  0  0
 20 75  1  0  0  0
 21 22  1  0  0  0
 21 76  1  0  0  0
 21 77  1  0  0  0
 22 23  1  0  0  0
 22 78  1  0  0  0
 22 79  1  0  0  0
 23 24  1  0  0  0
 23 80  1  0  0  0
 23 81  1  0  0  0
 24 25  1  0  0  0
 24 82  1  0  0  0
 24 83  1  0  0  0
 25 26  1  0  0  0
 25 84  1  0  0  0
 25 85  1  0  0  0
 26 27  1  0  0  0
 26 86  1  0  0  0
 26 87  1  0  0  0
 27 28  1  0  0  0
 27 88  1  0  0  0
 27 89  1  0  0  0
 28 29  1  0  0  0
 28 90  1  0  0  0
 28 91  1  0  0  0
 29 30  1  0  0  0
 29 92  1  0  0  0
 29 93  1  0  0  0
 30 31  1  0  0  0
 30 94  1  0  0  0
 30 95  1  0  0  0
 31 32  2  0  0  0
 31 33  1  0  0  0
 33 34  1  0  0  0
 34 96  1  0  0  0
 34 97  1  0  0  0
 34 98  1  0  0  0
M  END
>  <i_m_Spin_multiplicity> (1)
1

>  <s_j_Task> (1)
Single Point

>  <s_j_QM_Method> (1)
DFT(b3lyp-d3)

>  <s_j_QM_Basis> (1)
cc-pvtz(-f)

>  <i_j_Number_of_canonical_orbitals> (1)
1347

>  <i_j_Geometry_convergence_category> (1)
3

>  <r_j_Gas_Phase_Energy> (1)
-1409.04532070717

>  <r_j_Final_Energy> (1)
-1409.04532070717

>  <r_j_HOMO> (1)
-0.254749182678921

>  <r_j_LUMO> (1)
-0.0221024814462588

>  <r_j_Polarizability> (1)
405.455199870661

>  <r_j_QM_Dipole_(debye)> (1)
1.59975984419458

>  <r_j_QM_Dipole_X_(debye)> (1)
-1.41008352061426

>  <r_j_QM_Dipole_Y_(debye)> (1)
0.454327139078934

>  <r_j_QM_Dipole_Z_(debye)> (1)
0.60372417103003

>  <r_j_Lowest_Frequency_(cm-1)> (1)
11.7667905664005

>  <r_j_Highest_Frequency_(cm-1)> (1)
3107.56865128439

>  <r_j_2nd_Lowest_Frequency_(cm-1)> (1)
21.6769409827751

>  <i_j_Num_Negative_Frequencies> (1)
0

>  <r_j_Zero_Point_Energy_(kcal/mol)> (1)
574.628756560976

>  <r_j_Entropy_(cal/mol/K)_298.15K_1.00E+00atm> (1)
235.861020033707

>  <r_j_Enthalpy_(kcal/mol)_298.15K_1.00E+00atm> (1)
26.2779167356683

>  <r_j_Free_Energy_(kcal/mol)_298.15K_1.00E+00atm> (1)
-44.0440463873814

>  <r_j_Internal_Energy_(kcal/mol)_298.15K_1.00E+00atm> (1)
25.685431146841

>  <r_j_Heat_Capacity_(cal/mol/K)_298.15K_1.00E+00atm> (1)
156.644113660487

>  <r_j_ln(Q)_298.15K_1.00E+00atm> (1)
74.3377513612764

>  <r_j_Total_Internal_Energy_(au)_298.15K_1.00E+00atm> (1)
-1408.08865914841

>  <r_j_Total_Enthalpy_(au)_298.15K_1.00E+00atm> (1)
-1408.08771496252

>  <r_j_Total_Free_Energy_(au)_298.15K_1.00E+00atm> (1)
-1408.19978014478

>  <r_lp_tautomer_probability> (1)
1

>  <r_epik_Ionization_Penalty> (1)
  0.0000

>  <r_epik_Ionization_Penalty_Charging> (1)
  0.0000

>  <r_epik_Ionization_Penalty_Neutral> (1)
  0.0000

>  <r_epik_State_Penalty> (1)
  0.0000

>  <r_epik_Charging_Adjusted_Penalty> (1)
0

>  <i_epik_Tot_Q> (1)
0

>  <i_epik_Tot_abs_Q> (1)
0

>  <s_lp_Force_Field> (1)
S-OPLS

>  <r_lp_Energy> (1)
17.460997

>  <b_lp_Chiralities_Consistent> (1)
1

>  <s_epik_Chemistry_Notes> (1)
This compound has an ester and may undergo hydrolysis at high or low pH.

$$$$
