537768_6-ethyl-2-methyloctane
                    3D
 Schrodinger Suite 2021-3.
 35 34  0  0  1  0            999 V2000
   -2.2580   -0.6959   -1.2102 C   0  0  0  0  0  0
   -0.7246   -0.6714   -1.2207 C   0  0  0  0  0  0
   -0.0725    0.0915   -0.0478 C   0  0  0  0  0  0
   -0.5134    1.5707   -0.0250 C   0  0  0  0  0  0
   -0.0032    2.3851    1.1703 C   0  0  0  0  0  0
    1.4648   -0.0346   -0.0790 C   0  0  0  0  0  0
    2.0138   -1.4671   -0.0176 C   0  0  0  0  0  0
    3.5382   -1.5007    0.1547 C   0  0  0  0  0  0
    4.1776   -2.8972    0.0421 C   0  0  0  0  0  0
    3.6619   -3.8643    1.1178 C   0  0  0  0  0  0
    5.7082   -2.7934    0.1031 C   0  0  0  0  0  0
   -2.6417   -1.3565   -1.9946 H   0  0  0  0  0  0
   -2.6918    0.2942   -1.3783 H   0  0  0  0  0  0
   -2.6372   -1.0657   -0.2501 H   0  0  0  0  0  0
   -0.3689   -1.7075   -1.2106 H   0  0  0  0  0  0
   -0.3682   -0.2378   -2.1666 H   0  0  0  0  0  0
   -0.4254   -0.3744    0.8875 H   0  0  0  0  0  0
   -0.1916    2.0492   -0.9615 H   0  0  0  0  0  0
   -1.6080    1.6149   -0.0234 H   0  0  0  0  0  0
   -0.4553    3.3823    1.1826 H   0  0  0  0  0  0
    1.0822    2.5205    1.1488 H   0  0  0  0  0  0
   -0.2576    1.8938    2.1169 H   0  0  0  0  0  0
    1.8450    0.4619   -0.9846 H   0  0  0  0  0  0
    1.8848    0.5219    0.7675 H   0  0  0  0  0  0
    1.5293   -1.9996    0.8114 H   0  0  0  0  0  0
    1.7505   -2.0162   -0.9304 H   0  0  0  0  0  0
    3.9918   -0.8471   -0.6039 H   0  0  0  0  0  0
    3.8054   -1.0628    1.1283 H   0  0  0  0  0  0
    3.9048   -3.3085   -0.9419 H   0  0  0  0  0  0
    3.8727   -3.4731    2.1211 H   0  0  0  0  0  0
    4.1496   -4.8416    1.0334 H   0  0  0  0  0  0
    2.5824   -4.0260    1.0424 H   0  0  0  0  0  0
    6.0312   -2.3895    1.0708 H   0  0  0  0  0  0
    6.0963   -2.1318   -0.6792 H   0  0  0  0  0  0
    6.1799   -3.7743   -0.0207 H   0  0  0  0  0  0
  1  2  1  0  0  0
  1 12  1  0  0  0
  1 13  1  0  0  0
  1 14  1  0  0  0
  2  3  1  0  0  0
  2 15  1  0  0  0
  2 16  1  0  0  0
  3  4  1  0  0  0
  3  6  1  0  0  0
  3 17  1  0  0  0
  4  5  1  0  0  0
  4 18  1  0  0  0
  4 19  1  0  0  0
  5 20  1  0  0  0
  5 21  1  0  0  0
  5 22  1  0  0  0
  6  7  1  0  0  0
  6 23  1  0  0  0
  6 24  1  0  0  0
  7  8  1  0  0  0
  7 25  1  0  0  0
  7 26  1  0  0  0
  8  9  1  0  0  0
  8 27  1  0  0  0
  8 28  1  0  0  0
  9 10  1  0  0  0
  9 11  1  0  0  0
  9 29  1  0  0  0
 10 30  1  0  0  0
 10 31  1  0  0  0
 10 32  1  0  0  0
 11 33  1  0  0  0
 11 34  1  0  0  0
 11 35  1  0  0  0
M  END
>  <i_m_Spin_multiplicity> (1)
1

>  <s_j_Task> (1)
Single Point

>  <s_j_QM_Method> (1)
DFT(b3lyp-d3)

>  <s_j_QM_Basis> (1)
cc-pvtz(-f)

>  <i_j_Number_of_canonical_orbitals> (1)
465

>  <i_j_Geometry_convergence_category> (1)
3

>  <r_j_Gas_Phase_Energy> (1)
-433.827456668062

>  <r_j_Final_Energy> (1)
-433.827456668062

>  <r_j_HOMO> (1)
-0.298173605908886

>  <r_j_LUMO> (1)
0.0163590946601069

>  <r_j_Polarizability> (1)
135.717569269333

>  <r_j_QM_Dipole_(debye)> (1)
0.137874139514063

>  <r_j_QM_Dipole_X_(debye)> (1)
-0.0698915530983278

>  <r_j_QM_Dipole_Y_(debye)> (1)
-0.0531963538751332

>  <r_j_QM_Dipole_Z_(debye)> (1)
-0.10627604192215

>  <r_j_Lowest_Frequency_(cm-1)> (1)
70.5662495525033

>  <r_j_Highest_Frequency_(cm-1)> (1)
3058.41008240197

>  <r_j_2nd_Lowest_Frequency_(cm-1)> (1)
75.338176227068

>  <i_j_Num_Negative_Frequencies> (1)
0

>  <r_j_Zero_Point_Energy_(kcal/mol)> (1)
207.385461314117

>  <r_j_Entropy_(cal/mol/K)_298.15K_1.00E+00atm> (1)
113.866143669916

>  <r_j_Enthalpy_(kcal/mol)_298.15K_1.00E+00atm> (1)
9.31854065574353

>  <r_j_Free_Energy_(kcal/mol)_298.15K_1.00E+00atm> (1)
-24.630650079442

>  <r_j_Internal_Energy_(kcal/mol)_298.15K_1.00E+00atm> (1)
8.72605506691626

>  <r_j_Heat_Capacity_(cal/mol/K)_298.15K_1.00E+00atm> (1)
53.4978568535252

>  <r_j_ln(Q)_298.15K_1.00E+00atm> (1)
41.5717285684437

>  <r_j_Total_Internal_Energy_(au)_298.15K_1.00E+00atm> (1)
-433.483061042637

>  <r_j_Total_Enthalpy_(au)_298.15K_1.00E+00atm> (1)
-433.482116856745

>  <r_j_Total_Free_Energy_(au)_298.15K_1.00E+00atm> (1)
-433.536218336257

>  <r_lp_tautomer_probability> (1)
1

>  <r_epik_Ionization_Penalty> (1)
  0.0000

>  <r_epik_Ionization_Penalty_Charging> (1)
  0.0000

>  <r_epik_Ionization_Penalty_Neutral> (1)
  0.0000

>  <r_epik_State_Penalty> (1)
  0.0000

>  <r_epik_Charging_Adjusted_Penalty> (1)
0

>  <i_epik_Tot_Q> (1)
0

>  <i_epik_Tot_abs_Q> (1)
0

>  <s_lp_Force_Field> (1)
S-OPLS

>  <r_lp_Energy> (1)
7.310201

>  <b_lp_Chiralities_Consistent> (1)
1

$$$$
