53925385_Nonadecenoic acid
                    3D
 Schrodinger Suite 2021-3.
 56 55  0  0  1  0            999 V2000
   -7.0202    0.3313    4.9989 C   0  0  0  0  0  0
   -7.2981   -0.2554    3.6098 C   0  0  0  0  0  0
   -6.5384    0.4414    2.4698 C   0  0  0  0  0  0
   -5.0125    0.2932    2.5360 C   0  0  0  0  0  0
   -4.2951    0.9176    1.3333 C   0  0  0  0  0  0
   -2.7702    0.7677    1.3851 C   0  0  0  0  0  0
   -2.0643    1.3751    0.1655 C   0  0  0  0  0  0
   -0.5301    1.3043    0.2141 C   0  0  0  0  0  0
    0.0436   -0.1190    0.1988 C   0  0  0  0  0  0
    1.5744   -0.1528    0.1212 C   0  0  0  0  0  0
    2.1561   -1.5712    0.1282 C   0  0  0  0  0  0
    3.6848   -1.6050    0.0213 C   0  0  0  0  0  0
    4.2721   -3.0209    0.0424 C   0  0  0  0  0  0
    5.7994   -3.0514   -0.0860 C   0  0  0  0  0  0
    6.3936   -4.4638   -0.0487 C   0  0  0  0  0  0
    7.9278   -4.4904   -0.1852 C   0  0  0  0  0  0
    8.4921   -5.8853   -0.1723 C   0  0  0  0  0  0
    9.2945   -6.3986    0.7639 C   0  0  0  0  0  0
    9.8189   -7.8510    0.7478 C   0  0  0  0  0  0
   10.5508   -8.1416    1.7303 O   0  0  0  0  0  0
    9.4561   -8.5589   -0.2274 O   0  5  0  0  0  0
   -7.6306   -0.1578    5.7655 H   0  0  0  0  0  0
   -7.2489    1.4035    5.0240 H   0  0  0  0  0  0
   -5.9713    0.2107    5.2880 H   0  0  0  0  0  0
   -7.0474   -1.3251    3.6081 H   0  0  0  0  0  0
   -8.3751   -0.1954    3.4058 H   0  0  0  0  0  0
   -6.8899    0.0373    1.5105 H   0  0  0  0  0  0
   -6.7982    1.5101    2.4620 H   0  0  0  0  0  0
   -4.6297    0.7513    3.4574 H   0  0  0  0  0  0
   -4.7555   -0.7743    2.5980 H   0  0  0  0  0  0
   -4.6724    0.4584    0.4081 H   0  0  0  0  0  0
   -4.5551    1.9842    1.2682 H   0  0  0  0  0  0
   -2.3867    1.2428    2.2999 H   0  0  0  0  0  0
   -2.5197   -0.2975    1.4690 H   0  0  0  0  0  0
   -2.4201    0.8697   -0.7441 H   0  0  0  0  0  0
   -2.3710    2.4259    0.0674 H   0  0  0  0  0  0
   -0.1236    1.8574   -0.6438 H   0  0  0  0  0  0
   -0.1699    1.8299    1.1104 H   0  0  0  0  0  0
   -0.2798   -0.6630    1.0960 H   0  0  0  0  0  0
   -0.3756   -0.6687   -0.6567 H   0  0  0  0  0  0
    1.9030    0.3706   -0.7884 H   0  0  0  0  0  0
    1.9938    0.4156    0.9639 H   0  0  0  0  0  0
    1.8438   -2.0872    1.0476 H   0  0  0  0  0  0
    1.7215   -2.1462   -0.7023 H   0  0  0  0  0  0
    3.9938   -1.0972   -0.9042 H   0  0  0  0  0  0
    4.1193   -1.0197    0.8448 H   0  0  0  0  0  0
    3.9755   -3.5231    0.9745 H   0  0  0  0  0  0
    3.8273   -3.6113   -0.7718 H   0  0  0  0  0  0
    6.0928   -2.5566   -1.0241 H   0  0  0  0  0  0
    6.2422   -2.4500    0.7217 H   0  0  0  0  0  0
    6.1153   -4.9585    0.8914 H   0  0  0  0  0  0
    5.9494   -5.0696   -0.8515 H   0  0  0  0  0  0
    8.1939   -3.9724   -1.1229 H   0  0  0  0  0  0
    8.3694   -3.8988    0.6295 H   0  0  0  0  0  0
    8.2080   -6.5567   -0.9848 H   0  0  0  0  0  0
    9.6175   -5.7854    1.6100 H   0  0  0  0  0  0
  1  2  1  0  0  0
  1 22  1  0  0  0
  1 23  1  0  0  0
  1 24  1  0  0  0
  2  3  1  0  0  0
  2 25  1  0  0  0
  2 26  1  0  0  0
  3  4  1  0  0  0
  3 27  1  0  0  0
  3 28  1  0  0  0
  4  5  1  0  0  0
  4 29  1  0  0  0
  4 30  1  0  0  0
  5  6  1  0  0  0
  5 31  1  0  0  0
  5 32  1  0  0  0
  6  7  1  0  0  0
  6 33  1  0  0  0
  6 34  1  0  0  0
  7  8  1  0  0  0
  7 35  1  0  0  0
  7 36  1  0  0  0
  8  9  1  0  0  0
  8 37  1  0  0  0
  8 38  1  0  0  0
  9 10  1  0  0  0
  9 39  1  0  0  0
  9 40  1  0  0  0
 10 11  1  0  0  0
 10 41  1  0  0  0
 10 42  1  0  0  0
 11 12  1  0  0  0
 11 43  1  0  0  0
 11 44  1  0  0  0
 12 13  1  0  0  0
 12 45  1  0  0  0
 12 46  1  0  0  0
 13 14  1  0  0  0
 13 47  1  0  0  0
 13 48  1  0  0  0
 14 15  1  0  0  0
 14 49  1  0  0  0
 14 50  1  0  0  0
 15 16  1  0  0  0
 15 51  1  0  0  0
 15 52  1  0  0  0
 16 17  1  0  0  0
 16 53  1  0  0  0
 16 54  1  0  0  0
 17 18  2  0  0  0
 17 55  1  0  0  0
 18 19  1  0  0  0
 18 56  1  0  0  0
 19 20  2  0  0  0
 19 21  1  0  0  0
M  END
>  <s_lp_Force_Field> (1)
S-OPLS

>  <r_lp_Energy> (1)
12.018643

>  <b_lp_Chiralities_Consistent> (1)
1

>  <r_epik_Ionization_Penalty> (1)
  0.0030

>  <r_epik_Ionization_Penalty_Charging> (1)
  0.0030

>  <r_epik_Ionization_Penalty_Neutral> (1)
  0.0000

>  <r_epik_State_Penalty> (1)
  0.0021

>  <r_epik_Charging_Adjusted_Penalty> (1)
0.00507066606519717

>  <i_epik_Tot_Q> (1)
-1

>  <i_epik_Tot_abs_Q> (1)
1

>  <i_m_Spin_multiplicity> (1)
1

>  <s_j_Task> (1)
Single Point

>  <s_j_QM_Method> (1)
DFT(b3lyp-d3)

>  <s_j_QM_Basis> (1)
6-31g**

>  <i_j_Number_of_canonical_orbitals> (1)
490

>  <i_j_Geometry_convergence_category> (1)
3

>  <r_j_Gas_Phase_Energy> (1)
-895.7041337299

>  <r_j_Final_Energy> (1)
-895.7041337299

>  <r_j_HOMO> (1)
-0.00943633696490509

>  <r_j_LUMO> (1)
0.1220825061829

>  <r_j_Polarizability> (1)
218.369929825139

>  <r_j_QM_Dipole_(debye)> (1)
44.8834376427088

>  <r_j_QM_Dipole_X_(debye)> (1)
-36.2228039591301

>  <r_j_QM_Dipole_Y_(debye)> (1)
26.4690957927299

>  <r_j_QM_Dipole_Z_(debye)> (1)
1.34848651481899

>  <r_j_Lowest_Frequency_(cm-1)> (1)
10.3525055323545

>  <r_j_Highest_Frequency_(cm-1)> (1)
3132.60679303846

>  <r_j_2nd_Lowest_Frequency_(cm-1)> (1)
16.302075375367

>  <i_j_Num_Negative_Frequencies> (1)
0

>  <r_j_Zero_Point_Energy_(kcal/mol)> (1)
321.555700774919

>  <r_j_Entropy_(cal/mol/K)_298.15K_1.00E+00atm> (1)
169.275457516427

>  <r_j_Enthalpy_(kcal/mol)_298.15K_1.00E+00atm> (1)
16.2996009450777

>  <r_j_Free_Energy_(kcal/mol)_298.15K_1.00E+00atm> (1)
-34.1698767134449

>  <r_j_Internal_Energy_(kcal/mol)_298.15K_1.00E+00atm> (1)
15.7071153562504

>  <r_j_Heat_Capacity_(cal/mol/K)_298.15K_1.00E+00atm> (1)
92.6036004918443

>  <r_j_ln(Q)_298.15K_1.00E+00atm> (1)
57.6720807354629

>  <r_j_Total_Internal_Energy_(au)_298.15K_1.00E+00atm> (1)
-895.16667121777

>  <r_j_Total_Enthalpy_(au)_298.15K_1.00E+00atm> (1)
-895.165727031878

>  <r_j_Total_Free_Energy_(au)_298.15K_1.00E+00atm> (1)
-895.246155264552

$$$$
