54183197_Tricosenoic acid
                    3D
 Schrodinger Suite 2021-3.
 68 67  0  0  1  0            999 V2000
  -10.6502    3.2736    2.8837 C   0  0  0  0  0  0
   -9.1200    3.2166    2.8565 C   0  0  0  0  0  0
   -8.5738    1.8030    2.6233 C   0  0  0  0  0  0
   -7.0425    1.7415    2.5963 C   0  0  0  0  0  0
   -6.4948    0.3294    2.3516 C   0  0  0  0  0  0
   -4.9627    0.2260    2.4054 C   0  0  0  0  0  0
   -4.2334    1.0064    1.3037 C   0  0  0  0  0  0
   -2.7117    0.8231    1.3421 C   0  0  0  0  0  0
   -1.9843    1.5909    0.2304 C   0  0  0  0  0  0
   -0.4518    1.4919    0.2853 C   0  0  0  0  0  0
    0.0947    0.0696    0.1082 C   0  0  0  0  0  0
    1.6242    0.0054    0.0246 C   0  0  0  0  0  0
    2.1529   -1.4269   -0.1107 C   0  0  0  0  0  0
    3.6770   -1.5102   -0.2652 C   0  0  0  0  0  0
    4.2277   -2.9453   -0.2904 C   0  0  0  0  0  0
    3.7142   -3.8010   -1.4556 C   0  0  0  0  0  0
    4.3299   -5.2041   -1.5081 C   0  0  0  0  0  0
    3.7581   -6.0701   -2.6365 C   0  0  0  0  0  0
    4.3515   -7.4814   -2.7017 C   0  0  0  0  0  0
    3.7452   -8.3480   -3.8218 C   0  0  0  0  0  0
    4.3054   -9.7436   -3.8547 C   0  0  0  0  0  0
    5.0156  -10.2810   -4.8499 C   0  0  0  0  0  0
    5.5839  -11.7162   -4.8262 C   0  0  0  0  0  0
    6.2174  -12.0326   -5.8671 O   0  0  0  0  0  0
    5.3501  -12.3862   -3.7867 O   0  5  0  0  0  0
  -11.0133    4.2931    3.0509 H   0  0  0  0  0  0
  -11.0541    2.6403    3.6821 H   0  0  0  0  0  0
  -11.0744    2.9192    1.9371 H   0  0  0  0  0  0
   -8.7408    3.8838    2.0703 H   0  0  0  0  0  0
   -8.7201    3.6064    3.8026 H   0  0  0  0  0  0
   -8.9533    1.1325    3.4079 H   0  0  0  0  0  0
   -8.9710    1.4124    1.6752 H   0  0  0  0  0  0
   -6.6734    2.4249    1.8205 H   0  0  0  0  0  0
   -6.6462    2.1223    3.5490 H   0  0  0  0  0  0
   -6.9242   -0.3509    3.0997 H   0  0  0  0  0  0
   -6.8490   -0.0319    1.3754 H   0  0  0  0  0  0
   -4.6105    0.5725    3.3878 H   0  0  0  0  0  0
   -4.6754   -0.8318    2.3373 H   0  0  0  0  0  0
   -4.6136    0.6857    0.3228 H   0  0  0  0  0  0
   -4.4661    2.0764    1.3838 H   0  0  0  0  0  0
   -2.3293    1.1511    2.3199 H   0  0  0  0  0  0
   -2.4799   -0.2471    1.2698 H   0  0  0  0  0  0
   -2.3346    1.2260   -0.7459 H   0  0  0  0  0  0
   -2.2766    2.6490    0.2807 H   0  0  0  0  0  0
   -0.0273    2.1354   -0.4974 H   0  0  0  0  0  0
   -0.0940    1.9013    1.2411 H   0  0  0  0  0  0
   -0.2421   -0.5653    0.9380 H   0  0  0  0  0  0
   -0.3350   -0.3716   -0.8030 H   0  0  0  0  0  0
    1.9673    0.6046   -0.8312 H   0  0  0  0  0  0
    2.0609    0.4759    0.9176 H   0  0  0  0  0  0
    1.8457   -2.0114    0.7689 H   0  0  0  0  0  0
    1.6678   -1.9024   -0.9724 H   0  0  0  0  0  0
    3.9733   -0.9907   -1.1881 H   0  0  0  0  0  0
    4.1491   -0.9576    0.5593 H   0  0  0  0  0  0
    5.3246   -2.9057   -0.3334 H   0  0  0  0  0  0
    3.9805   -3.4436    0.6583 H   0  0  0  0  0  0
    2.6228   -3.9004   -1.3899 H   0  0  0  0  0  0
    3.9130   -3.2794   -2.4037 H   0  0  0  0  0  0
    5.4203   -5.1232   -1.6228 H   0  0  0  0  0  0
    4.1649   -5.7086   -0.5450 H   0  0  0  0  0  0
    2.6667   -6.1413   -2.5154 H   0  0  0  0  0  0
    3.9194   -5.5628   -3.5993 H   0  0  0  0  0  0
    5.4382   -7.4224   -2.8483 H   0  0  0  0  0  0
    4.2041   -7.9857   -1.7360 H   0  0  0  0  0  0
    2.6515   -8.3734   -3.6744 H   0  0  0  0  0  0
    3.9132   -7.8520   -4.7885 H   0  0  0  0  0  0
    4.1380  -10.3795   -2.9835 H   0  0  0  0  0  0
    5.2213   -9.7026   -5.7551 H   0  0  0  0  0  0
  1  2  1  0  0  0
  1 26  1  0  0  0
  1 27  1  0  0  0
  1 28  1  0  0  0
  2  3  1  0  0  0
  2 29  1  0  0  0
  2 30  1  0  0  0
  3  4  1  0  0  0
  3 31  1  0  0  0
  3 32  1  0  0  0
  4  5  1  0  0  0
  4 33  1  0  0  0
  4 34  1  0  0  0
  5  6  1  0  0  0
  5 35  1  0  0  0
  5 36  1  0  0  0
  6  7  1  0  0  0
  6 37  1  0  0  0
  6 38  1  0  0  0
  7  8  1  0  0  0
  7 39  1  0  0  0
  7 40  1  0  0  0
  8  9  1  0  0  0
  8 41  1  0  0  0
  8 42  1  0  0  0
  9 10  1  0  0  0
  9 43  1  0  0  0
  9 44  1  0  0  0
 10 11  1  0  0  0
 10 45  1  0  0  0
 10 46  1  0  0  0
 11 12  1  0  0  0
 11 47  1  0  0  0
 11 48  1  0  0  0
 12 13  1  0  0  0
 12 49  1  0  0  0
 12 50  1  0  0  0
 13 14  1  0  0  0
 13 51  1  0  0  0
 13 52  1  0  0  0
 14 15  1  0  0  0
 14 53  1  0  0  0
 14 54  1  0  0  0
 15 16  1  0  0  0
 15 55  1  0  0  0
 15 56  1  0  0  0
 16 17  1  0  0  0
 16 57  1  0  0  0
 16 58  1  0  0  0
 17 18  1  0  0  0
 17 59  1  0  0  0
 17 60  1  0  0  0
 18 19  1  0  0  0
 18 61  1  0  0  0
 18 62  1  0  0  0
 19 20  1  0  0  0
 19 63  1  0  0  0
 19 64  1  0  0  0
 20 21  1  0  0  0
 20 65  1  0  0  0
 20 66  1  0  0  0
 21 22  2  0  0  0
 21 67  1  0  0  0
 22 23  1  0  0  0
 22 68  1  0  0  0
 23 24  2  0  0  0
 23 25  1  0  0  0
M  END
>  <s_lp_Force_Field> (1)
S-OPLS

>  <r_lp_Energy> (1)
14.533942

>  <b_lp_Chiralities_Consistent> (1)
1

>  <r_epik_Ionization_Penalty> (1)
  0.0030

>  <r_epik_Ionization_Penalty_Charging> (1)
  0.0030

>  <r_epik_Ionization_Penalty_Neutral> (1)
  0.0000

>  <r_epik_State_Penalty> (1)
  0.0021

>  <r_epik_Charging_Adjusted_Penalty> (1)
0.00507066606519717

>  <i_epik_Tot_Q> (1)
-1

>  <i_epik_Tot_abs_Q> (1)
1

>  <i_m_Spin_multiplicity> (1)
1

>  <s_j_Task> (1)
Single Point

>  <s_j_QM_Method> (1)
DFT(b3lyp-d3)

>  <s_j_QM_Basis> (1)
6-31g**

>  <i_j_Number_of_canonical_orbitals> (1)
590

>  <i_j_Geometry_convergence_category> (1)
3

>  <r_j_Gas_Phase_Energy> (1)
-1052.98034493762

>  <r_j_Final_Energy> (1)
-1052.98034493762

>  <r_j_HOMO> (1)
-0.00945918019845604

>  <r_j_LUMO> (1)
0.119925178875859

>  <r_j_Polarizability> (1)
262.887004416567

>  <r_j_QM_Dipole_(debye)> (1)
52.4516638384544

>  <r_j_QM_Dipole_X_(debye)> (1)
-26.312200788

>  <r_j_QM_Dipole_Y_(debye)> (1)
41.2396654712287

>  <r_j_QM_Dipole_Z_(debye)> (1)
18.9244582732334

>  <r_j_Lowest_Frequency_(cm-1)> (1)
-11.7646873718739

>  <r_j_Highest_Frequency_(cm-1)> (1)
3133.65381366238

>  <r_j_2nd_Lowest_Frequency_(cm-1)> (1)
12.4159814701236

>  <i_j_Num_Negative_Frequencies> (1)
1

>  <r_j_Zero_Point_Energy_(kcal/mol)> (1)
393.517810175068

>  <r_j_Entropy_(cal/mol/K)_298.15K_1.00E+00atm> (1)
187.984744471089

>  <r_j_Enthalpy_(kcal/mol)_298.15K_1.00E+00atm> (1)
18.9563067152007

>  <r_j_Free_Energy_(kcal/mol)_298.15K_1.00E+00atm> (1)
-37.0913448488543

>  <r_j_Internal_Energy_(kcal/mol)_298.15K_1.00E+00atm> (1)
18.3638211263735

>  <r_j_Heat_Capacity_(cal/mol/K)_298.15K_1.00E+00atm> (1)
109.723558766106

>  <r_j_ln(Q)_298.15K_1.00E+00atm> (1)
62.6029485751213

>  <r_j_Total_Internal_Energy_(au)_298.15K_1.00E+00atm> (1)
-1052.32396977359

>  <r_j_Total_Enthalpy_(au)_298.15K_1.00E+00atm> (1)
-1052.3230255877

>  <r_j_Total_Free_Energy_(au)_298.15K_1.00E+00atm> (1)
-1052.41234320639

$$$$
