5461123_Silicon
                    3D
 Schrodinger Suite 2021-3.
  1  0  0  0  1  0            999 V2000
    0.0000    0.0000    0.0000 Si  0  0  4  0  0  0
M  END
>  <i_m_Spin_multiplicity> (1)
1

>  <s_j_Task> (1)
Single Point

>  <s_j_QM_Method> (1)
DFT(b3lyp-d3)

>  <s_j_QM_Basis> (1)
cc-pvtz(-f)

>  <i_j_Number_of_canonical_orbitals> (1)
27

>  <r_j_Gas_Phase_Energy> (1)
-289.3541787803

>  <r_j_Final_Energy> (1)
-289.3541787803

>  <r_j_Polarizability> (1)
26.9280114342247

>  <r_j_QM_Dipole_(debye)> (1)
3.52398862689674e-08

>  <r_j_QM_Dipole_X_(debye)> (1)
4.24078641173918e-09

>  <r_j_QM_Dipole_Y_(debye)> (1)
2.82412286568417e-08

>  <r_j_QM_Dipole_Z_(debye)> (1)
-2.06469929726279e-08

>  <r_j_Zero_Point_Energy_(kcal/mol)> (1)
0

>  <r_j_Entropy_(cal/mol/K)_298.15K_1.00E+00atm> (1)
35.9211285183043

>  <r_j_Enthalpy_(kcal/mol)_298.15K_1.00E+00atm> (1)
1.48121397206819

>  <r_j_Free_Energy_(kcal/mol)_298.15K_1.00E+00atm> (1)
-9.22867049566424

>  <r_j_Internal_Energy_(kcal/mol)_298.15K_1.00E+00atm> (1)
0.888728383240912

>  <r_j_Heat_Capacity_(cal/mol/K)_298.15K_1.00E+00atm> (1)
2.98080960335707

>  <r_j_ln(Q)_298.15K_1.00E+00atm> (1)
15.57619403694

>  <r_j_Total_Internal_Energy_(au)_298.15K_1.00E+00atm> (1)
-289.352762501462

>  <r_j_Total_Enthalpy_(au)_298.15K_1.00E+00atm> (1)
-289.35181831557

>  <r_j_Total_Free_Energy_(au)_298.15K_1.00E+00atm> (1)
-289.368885602965

>  <r_j_HOMO> (1)
-0.156211986470481

>  <r_j_LUMO> (1)
-0.124143673219162

$$$$
