5462311_Boron
                    3D
 Schrodinger Suite 2021-3.
  1  0  0  0  1  0            999 V2000
    0.0000    0.0000    0.0000 B   0  0  3  0  0  0
M  END
>  <i_m_Spin_multiplicity> (1)
2

>  <s_j_Task> (1)
Single Point

>  <s_j_QM_Method> (1)
UDFT(b3lyp-d3)

>  <s_j_QM_Basis> (1)
cc-pvtz(-f)

>  <i_j_Number_of_canonical_orbitals> (1)
23

>  <r_j_Gas_Phase_Energy> (1)
-24.6637514677176

>  <r_j_Final_Energy> (1)
-24.6637514677176

>  <r_j_alpha_HOMO> (1)
-0.188769711078546

>  <r_j_alpha_LUMO> (1)
-0.0969830629480367

>  <r_j_beta_HOMO> (1)
-0.352299266626743

>  <r_j_beta_LUMO> (1)
-0.0878873209622658

>  <r_j_Polarizability> (1)
17.4820440030682

>  <r_j_QM_Dipole_(debye)> (1)
6.91962538346368e-09

>  <r_j_QM_Dipole_X_(debye)> (1)
-1.52580465950182e-10

>  <r_j_QM_Dipole_Y_(debye)> (1)
-1.76269197365665e-09

>  <r_j_QM_Dipole_Z_(debye)> (1)
-6.68960773550226e-09

>  <r_j_Zero_Point_Energy_(kcal/mol)> (1)
0

>  <r_j_Entropy_(cal/mol/K)_298.15K_1.00E+00atm> (1)
34.5185349960853

>  <r_j_Enthalpy_(kcal/mol)_298.15K_1.00E+00atm> (1)
1.48121397206819

>  <r_j_Free_Energy_(kcal/mol)_298.15K_1.00E+00atm> (1)
-8.81048723701465

>  <r_j_Internal_Energy_(kcal/mol)_298.15K_1.00E+00atm> (1)
0.888728383240912

>  <r_j_Heat_Capacity_(cal/mol/K)_298.15K_1.00E+00atm> (1)
2.98080960335707

>  <r_j_ln(Q)_298.15K_1.00E+00atm> (1)
14.8703823403596

>  <r_j_Total_Internal_Energy_(au)_298.15K_1.00E+00atm> (1)
-24.6623351888793

>  <r_j_Total_Enthalpy_(au)_298.15K_1.00E+00atm> (1)
-24.661391002987

>  <r_j_Total_Free_Energy_(au)_298.15K_1.00E+00atm> (1)
-24.6777918729358

>  <r_j_S2_Value> (1)
0.753328931753581

$$$$
