5462224_Magnesium
                    3D
 Schrodinger Suite 2021-3.
  1  0  0  0  1  0            999 V2000
    0.0000    0.0000    0.0000 Mg  0  0  0  0  0  0
M  END
>  <i_m_Spin_multiplicity> (1)
1

>  <s_j_Task> (1)
Single Point

>  <s_j_QM_Method> (1)
DFT(b3lyp-d3)

>  <s_j_QM_Basis> (1)
cc-pvtz(-f)

>  <i_j_Number_of_canonical_orbitals> (1)
27

>  <r_j_Gas_Phase_Energy> (1)
-200.097699629867

>  <r_j_Final_Energy> (1)
-200.097699629867

>  <r_j_Polarizability> (1)
72.2272799549824

>  <r_j_QM_Dipole_(debye)> (1)
2.88018265060009e-06

>  <r_j_QM_Dipole_X_(debye)> (1)
2.53451809253109e-06

>  <r_j_QM_Dipole_Y_(debye)> (1)
-2.23848167235219e-07

>  <r_j_QM_Dipole_Z_(debye)> (1)
-1.34965259881044e-06

>  <r_j_Zero_Point_Energy_(kcal/mol)> (1)
0

>  <r_j_Entropy_(cal/mol/K)_298.15K_1.00E+00atm> (1)
35.4622336659957

>  <r_j_Enthalpy_(kcal/mol)_298.15K_1.00E+00atm> (1)
1.48121397206819

>  <r_j_Free_Energy_(kcal/mol)_298.15K_1.00E+00atm> (1)
-9.09185099544842

>  <r_j_Internal_Energy_(kcal/mol)_298.15K_1.00E+00atm> (1)
0.888728383240912

>  <r_j_Heat_Capacity_(cal/mol/K)_298.15K_1.00E+00atm> (1)
2.98080960335707

>  <r_j_ln(Q)_298.15K_1.00E+00atm> (1)
15.3452694325346

>  <r_j_Total_Internal_Energy_(au)_298.15K_1.00E+00atm> (1)
-200.096283351029

>  <r_j_Total_Enthalpy_(au)_298.15K_1.00E+00atm> (1)
-200.095339165136

>  <r_j_Total_Free_Energy_(au)_298.15K_1.00E+00atm> (1)
-200.112188416778

>  <r_j_HOMO> (1)
-0.194605768951668

>  <r_j_LUMO> (1)
-0.0328232716582237

$$$$
