549957_2-ethyl-1,3-dimethylcyclohexane
                    3D
 Schrodinger Suite 2021-3.
 30 30  0  0  1  0            999 V2000
   -0.6165    1.4684   -0.0345 C   0  0  0  0  0  0
   -0.0276    0.0533   -0.0796 C   0  0  0  0  0  0
    1.5098   -0.0117    0.0388 C   0  0  0  0  0  0
    2.0579    0.7649    1.2708 C   0  0  0  0  0  0
    3.5998    0.7136    1.2931 C   0  0  0  0  0  0
    4.1387   -0.7222    1.2704 C   0  0  0  0  0  0
    3.5849   -1.4857    0.0624 C   0  0  0  0  0  0
    2.0444   -1.4693   -0.0026 C   0  0  0  0  0  0
    1.5691   -2.2465   -1.2392 C   0  0  0  0  0  0
    1.4541    0.3031    2.6090 C   0  0  0  0  0  0
   -1.6903    1.4498   -0.2483 H   0  0  0  0  0  0
   -0.1403    2.1154   -0.7807 H   0  0  0  0  0  0
   -0.4861    1.9420    0.9433 H   0  0  0  0  0  0
   -0.4831   -0.5614    0.7085 H   0  0  0  0  0  0
   -0.3262   -0.4075   -1.0269 H   0  0  0  0  0  0
    1.9207    0.4960   -0.8505 H   0  0  0  0  0  0
    1.7779    1.8183    1.1415 H   0  0  0  0  0  0
    3.9830    1.2460    0.4111 H   0  0  0  0  0  0
    3.9766    1.2532    2.1711 H   0  0  0  0  0  0
    5.2350   -0.7149    1.2450 H   0  0  0  0  0  0
    3.8563   -1.2435    2.1944 H   0  0  0  0  0  0
    3.9774   -1.0335   -0.8611 H   0  0  0  0  0  0
    3.9398   -2.5241    0.0722 H   0  0  0  0  0  0
    1.6653   -1.9942    0.8873 H   0  0  0  0  0  0
    1.8253   -1.7075   -2.1600 H   0  0  0  0  0  0
    0.4889   -2.4144   -1.2394 H   0  0  0  0  0  0
    2.0525   -3.2285   -1.2857 H   0  0  0  0  0  0
    1.6462   -0.7549    2.8106 H   0  0  0  0  0  0
    0.3700    0.4478    2.6355 H   0  0  0  0  0  0
    1.8830    0.8772    3.4376 H   0  0  0  0  0  0
  1  2  1  0  0  0
  1 11  1  0  0  0
  1 12  1  0  0  0
  1 13  1  0  0  0
  2  3  1  0  0  0
  2 14  1  0  0  0
  2 15  1  0  0  0
  3  8  1  0  0  0
  3  4  1  0  0  0
  3 16  1  0  0  0
  4  5  1  0  0  0
  4 10  1  0  0  0
  4 17  1  0  0  0
  5  6  1  0  0  0
  5 18  1  0  0  0
  5 19  1  0  0  0
  6  7  1  0  0  0
  6 20  1  0  0  0
  6 21  1  0  0  0
  7  8  1  0  0  0
  7 22  1  0  0  0
  7 23  1  0  0  0
  8  9  1  0  0  0
  8 24  1  0  0  0
  9 25  1  0  0  0
  9 26  1  0  0  0
  9 27  1  0  0  0
 10 28  1  0  0  0
 10 29  1  0  0  0
 10 30  1  0  0  0
M  END
>  <i_m_Spin_multiplicity> (1)
1

>  <s_j_Task> (1)
Single Point

>  <s_j_QM_Method> (1)
DFT(b3lyp-d3)

>  <s_j_QM_Basis> (1)
cc-pvtz(-f)

>  <i_j_Number_of_canonical_orbitals> (1)
406

>  <i_j_Geometry_convergence_category> (1)
3

>  <r_j_Gas_Phase_Energy> (1)
-393.289863359266

>  <r_j_Final_Energy> (1)
-393.289863359266

>  <r_j_HOMO> (1)
-0.290864914276863

>  <r_j_LUMO> (1)
0.0220477411870235

>  <r_j_Polarizability> (1)
116.229603219406

>  <r_j_QM_Dipole_(debye)> (1)
0.0280403153717185

>  <r_j_QM_Dipole_X_(debye)> (1)
-0.0145891608580353

>  <r_j_QM_Dipole_Y_(debye)> (1)
0.0162222100826873

>  <r_j_QM_Dipole_Z_(debye)> (1)
0.0176140731131946

>  <r_j_Lowest_Frequency_(cm-1)> (1)
118.986159411605

>  <r_j_Highest_Frequency_(cm-1)> (1)
3061.20959555069

>  <r_j_2nd_Lowest_Frequency_(cm-1)> (1)
155.961913630854

>  <i_j_Num_Negative_Frequencies> (1)
0

>  <r_j_Zero_Point_Energy_(kcal/mol)> (1)
177.313176974876

>  <r_j_Entropy_(cal/mol/K)_298.15K_1.00E+00atm> (1)
96.8282582989374

>  <r_j_Enthalpy_(kcal/mol)_298.15K_1.00E+00atm> (1)
7.21218212468211

>  <r_j_Free_Energy_(kcal/mol)_298.15K_1.00E+00atm> (1)
-21.6571630871461

>  <r_j_Internal_Energy_(kcal/mol)_298.15K_1.00E+00atm> (1)
6.61969653585483

>  <r_j_Heat_Capacity_(cal/mol/K)_298.15K_1.00E+00atm> (1)
43.3966668093705

>  <r_j_ln(Q)_298.15K_1.00E+00atm> (1)
36.553063054264

>  <r_j_Total_Internal_Energy_(au)_298.15K_1.00E+00atm> (1)
-392.996747665712

>  <r_j_Total_Enthalpy_(au)_298.15K_1.00E+00atm> (1)
-392.99580347982

>  <r_j_Total_Free_Energy_(au)_298.15K_1.00E+00atm> (1)
-393.041809710151

>  <r_lp_tautomer_probability> (1)
1

>  <r_epik_Ionization_Penalty> (1)
  0.0000

>  <r_epik_Ionization_Penalty_Charging> (1)
  0.0000

>  <r_epik_Ionization_Penalty_Neutral> (1)
  0.0000

>  <r_epik_State_Penalty> (1)
  0.0000

>  <r_epik_Charging_Adjusted_Penalty> (1)
0

>  <i_epik_Tot_Q> (1)
0

>  <i_epik_Tot_abs_Q> (1)
0

>  <s_lp_Force_Field> (1)
S-OPLS

>  <r_lp_Energy> (1)
16.361

>  <b_lp_Chiralities_Consistent> (1)
1

$$$$
