550319_Cyclohexane, 1-ethyl-2,3-dimethyl-
                    3D
 Schrodinger Suite 2021-3.
 30 30  0  0  1  0            999 V2000
   -0.6094    1.5048   -0.0254 C   0  0  0  0  0  0
   -0.0332    0.0834   -0.0079 C   0  0  0  0  0  0
    1.5082    0.0081    0.0275 C   0  0  0  0  0  0
    2.0740    0.7811    1.2346 C   0  0  0  0  0  0
    3.6027    0.7326    1.2986 C   0  0  0  0  0  0
    4.1012   -0.7127    1.3034 C   0  0  0  0  0  0
    3.5810   -1.5074    0.0931 C   0  0  0  0  0  0
    2.0300   -1.4586    0.0135 C   0  0  0  0  0  0
    1.5114   -2.2425   -1.2034 C   0  0  0  0  0  0
    4.1352   -2.9392    0.1373 C   0  0  0  0  0  0
   -1.6918    1.4817   -0.1883 H   0  0  0  0  0  0
   -0.1649    2.0984   -0.8334 H   0  0  0  0  0  0
   -0.4325    2.0378    0.9132 H   0  0  0  0  0  0
   -0.4349   -0.4656    0.8563 H   0  0  0  0  0  0
   -0.4017   -0.4377   -0.8969 H   0  0  0  0  0  0
    1.8864    0.4958   -0.8872 H   0  0  0  0  0  0
    1.7427    1.8241    1.2032 H   0  0  0  0  0  0
    1.6561    0.3485    2.1565 H   0  0  0  0  0  0
    4.0180    1.2563    0.4256 H   0  0  0  0  0  0
    3.9642    1.2680    2.1848 H   0  0  0  0  0  0
    5.1981   -0.7404    1.3173 H   0  0  0  0  0  0
    3.7660   -1.2117    2.2253 H   0  0  0  0  0  0
    3.9678   -1.0190   -0.8164 H   0  0  0  0  0  0
    1.6456   -1.9485    0.9242 H   0  0  0  0  0  0
    1.8554   -1.7795   -2.1370 H   0  0  0  0  0  0
    0.4202   -2.2810   -1.2331 H   0  0  0  0  0  0
    1.8618   -3.2771   -1.1959 H   0  0  0  0  0  0
    3.6865   -3.5038    0.9642 H   0  0  0  0  0  0
    5.2190   -2.9266    0.2961 H   0  0  0  0  0  0
    3.9484   -3.4927   -0.7863 H   0  0  0  0  0  0
  1  2  1  0  0  0
  1 11  1  0  0  0
  1 12  1  0  0  0
  1 13  1  0  0  0
  2  3  1  0  0  0
  2 14  1  0  0  0
  2 15  1  0  0  0
  3  8  1  0  0  0
  3  4  1  0  0  0
  3 16  1  0  0  0
  4  5  1  0  0  0
  4 17  1  0  0  0
  4 18  1  0  0  0
  5  6  1  0  0  0
  5 19  1  0  0  0
  5 20  1  0  0  0
  6  7  1  0  0  0
  6 21  1  0  0  0
  6 22  1  0  0  0
  7  8  1  0  0  0
  7 10  1  0  0  0
  7 23  1  0  0  0
  8  9  1  0  0  0
  8 24  1  0  0  0
  9 25  1  0  0  0
  9 26  1  0  0  0
  9 27  1  0  0  0
 10 28  1  0  0  0
 10 29  1  0  0  0
 10 30  1  0  0  0
M  END
>  <i_m_Spin_multiplicity> (1)
1

>  <s_j_Task> (1)
Single Point

>  <s_j_QM_Method> (1)
DFT(b3lyp-d3)

>  <s_j_QM_Basis> (1)
cc-pvtz(-f)

>  <i_j_Number_of_canonical_orbitals> (1)
405

>  <i_j_Geometry_convergence_category> (1)
0

>  <r_j_Gas_Phase_Energy> (1)
-393.290663907968

>  <r_j_Final_Energy> (1)
-393.290663907968

>  <r_j_HOMO> (1)
-0.291756751681023

>  <r_j_LUMO> (1)
0.0277681853191676

>  <r_j_Polarizability> (1)
117.298246306046

>  <r_j_QM_Dipole_(debye)> (1)
0.0536299483535303

>  <r_j_QM_Dipole_X_(debye)> (1)
-0.00260972632679465

>  <r_j_QM_Dipole_Y_(debye)> (1)
0.0499229677965994

>  <r_j_QM_Dipole_Z_(debye)> (1)
-0.0194179807210036

>  <r_j_Lowest_Frequency_(cm-1)> (1)
85.1258996589577

>  <r_j_Highest_Frequency_(cm-1)> (1)
3075.2225451193

>  <r_j_2nd_Lowest_Frequency_(cm-1)> (1)
128.995510751791

>  <i_j_Num_Negative_Frequencies> (1)
0

>  <r_j_Zero_Point_Energy_(kcal/mol)> (1)
177.009281083085

>  <r_j_Entropy_(cal/mol/K)_298.15K_1.00E+00atm> (1)
98.1503744524352

>  <r_j_Enthalpy_(kcal/mol)_298.15K_1.00E+00atm> (1)
7.32692802057677

>  <r_j_Free_Energy_(kcal/mol)_298.15K_1.00E+00atm> (1)
-21.9366061224168

>  <r_j_Internal_Energy_(kcal/mol)_298.15K_1.00E+00atm> (1)
6.73444243174949

>  <r_j_Heat_Capacity_(cal/mol/K)_298.15K_1.00E+00atm> (1)
43.6265064664677

>  <r_j_ln(Q)_298.15K_1.00E+00atm> (1)
37.0247083407322

>  <r_j_Total_Internal_Energy_(au)_298.15K_1.00E+00atm> (1)
-392.997849644121

>  <r_j_Total_Enthalpy_(au)_298.15K_1.00E+00atm> (1)
-392.996905458229

>  <r_j_Total_Free_Energy_(au)_298.15K_1.00E+00atm> (1)
-393.043539868612

>  <r_lp_tautomer_probability> (1)
1

>  <r_epik_Ionization_Penalty> (1)
  0.0000

>  <r_epik_Ionization_Penalty_Charging> (1)
  0.0000

>  <r_epik_Ionization_Penalty_Neutral> (1)
  0.0000

>  <r_epik_State_Penalty> (1)
  0.0000

>  <r_epik_Charging_Adjusted_Penalty> (1)
0

>  <i_epik_Tot_Q> (1)
0

>  <i_epik_Tot_abs_Q> (1)
0

>  <s_lp_Force_Field> (1)
S-OPLS

>  <r_lp_Energy> (1)
17.6147

>  <b_lp_Chiralities_Consistent> (1)
1

$$$$
