560947_18-Norisopimara-4(19),7,15-triene
                    3D
 Schrodinger Suite 2021-3.
 47 49  0  0  1  0            999 V2000
   -0.0814    0.0687    0.0223 C   0  0  0  0  0  0
    1.4601   -0.0158    0.0116 C   0  0  1  0  0  0
    2.0178    0.7126   -1.2299 C   0  0  0  0  0  0
    3.5497    0.8613   -1.2453 C   0  0  0  0  0  0
    4.0665    1.5549    0.0408 C   0  0  1  0  0  0
    3.5219    0.7824    1.2285 C   0  0  0  0  0  0
    4.3019    0.1281    2.0949 C   0  0  0  0  0  0
    5.8004    0.0907    2.0215 C   0  0  0  0  0  0
    6.3290    0.5137    0.6452 C   0  0  1  0  0  0
    5.6066    1.8092    0.1359 C   0  0  1  0  0  0
    6.1821    2.2048   -1.2440 C   0  0  0  0  0  0
    7.7051    2.3766   -1.2456 C   0  0  0  0  0  0
    8.3753    1.0747   -0.7719 C   0  0  0  0  0  0
    7.8428    0.6536    0.5798 C   0  0  0  0  0  0
    8.6676    0.4418    1.6114 C   0  0  0  0  0  0
    5.8302    2.9613    1.1424 C   0  0  0  0  0  0
    2.0184    0.7005    1.2770 C   0  0  0  0  0  0
    1.8375   -1.4871    0.0658 C   0  0  0  0  0  0
    2.2602   -2.2642   -0.9311 C   0  0  0  0  0  0
   -0.4133    1.1132    0.0536 H   0  0  0  0  0  0
   -0.4981   -0.4427    0.8974 H   0  0  0  0  0  0
   -0.5018   -0.4011   -0.8723 H   0  0  0  0  0  0
    1.6792    0.2094   -2.1434 H   0  0  0  0  0  0
    1.5702    1.7159   -1.2562 H   0  0  0  0  0  0
    4.0216   -0.1223   -1.3418 H   0  0  0  0  0  0
    3.8252    1.4424   -2.1301 H   0  0  0  0  0  0
    3.5898    2.5498    0.0549 H   0  0  0  0  0  0
    3.8367   -0.4237    2.9113 H   0  0  0  0  0  0
    6.2210    0.7406    2.8024 H   0  0  0  0  0  0
    6.1587   -0.9192    2.2574 H   0  0  0  0  0  0
    6.0572   -0.2818   -0.0668 H   0  0  0  0  0  0
    5.9428    1.4218   -1.9732 H   0  0  0  0  0  0
    5.6864    3.1198   -1.5941 H   0  0  0  0  0  0
    8.0504    2.6318   -2.2544 H   0  0  0  0  0  0
    8.0052    3.2035   -0.5916 H   0  0  0  0  0  0
    8.1521    0.2860   -1.5071 H   0  0  0  0  0  0
    9.4646    1.1821   -0.7401 H   0  0  0  0  0  0
    8.3219    0.1438    2.5949 H   0  0  0  0  0  0
    9.7424    0.5546    1.4976 H   0  0  0  0  0  0
    6.8802    3.0486    1.4340 H   0  0  0  0  0  0
    5.2444    2.8050    2.0523 H   0  0  0  0  0  0
    5.5165    3.9165    0.7069 H   0  0  0  0  0  0
    1.5858    1.7112    1.3118 H   0  0  0  0  0  0
    1.6821    0.1765    2.1802 H   0  0  0  0  0  0
    1.6931   -1.9434    1.0470 H   0  0  0  0  0  0
    2.4293   -1.8893   -1.9360 H   0  0  0  0  0  0
    2.4536   -3.3212   -0.7747 H   0  0  0  0  0  0
  1  2  1  0  0  0
  1 20  1  0  0  0
  1 21  1  0  0  0
  1 22  1  0  0  0
  2 17  1  0  0  0
  2  3  1  0  0  0
  2 18  1  0  0  0
  3  4  1  0  0  0
  3 23  1  0  0  0
  3 24  1  0  0  0
  4  5  1  0  0  0
  4 25  1  0  0  0
  4 26  1  0  0  0
  5 10  1  0  0  0
  5  6  1  0  0  0
  5 27  1  0  0  0
  6  7  2  0  0  0
  6 17  1  0  0  0
  7  8  1  0  0  0
  7 28  1  0  0  0
  8  9  1  0  0  0
  8 29  1  0  0  0
  8 30  1  0  0  0
  9 14  1  0  0  0
  9 10  1  0  0  0
  9 31  1  0  0  0
 10 11  1  0  0  0
 10 16  1  0  0  0
 11 12  1  0  0  0
 11 32  1  0  0  0
 11 33  1  0  0  0
 12 13  1  0  0  0
 12 34  1  0  0  0
 12 35  1  0  0  0
 13 14  1  0  0  0
 13 36  1  0  0  0
 13 37  1  0  0  0
 14 15  2  0  0  0
 15 38  1  0  0  0
 15 39  1  0  0  0
 16 40  1  0  0  0
 16 41  1  0  0  0
 16 42  1  0  0  0
 17 43  1  0  0  0
 17 44  1  0  0  0
 18 19  2  0  0  0
 18 45  1  0  0  0
 19 46  1  0  0  0
 19 47  1  0  0  0
M  END
> <i_m_Spin_multiplicity>
1

> <s_j_Task>
Single Point

> <s_j_QM_Method>
DFT(b3lyp-d3)

> <s_j_QM_Basis>
cc-pvtz(-f)

> <i_j_Number_of_canonical_orbitals>
676

> <i_j_Geometry_convergence_category>
0

> <r_j_Gas_Phase_Energy>
-741.137459183904

> <r_j_Final_Energy>
-741.137459183904

> <r_j_HOMO>
-0.233302907221733

> <r_j_LUMO>
0.00159098989170466

> <r_j_Polarizability>
210.301903490469

> <r_j_QM_Dipole_(debye)>
0.787385725125134

> <r_j_QM_Dipole_X_(debye)>
-0.449993649596554

> <r_j_QM_Dipole_Y_(debye)>
0.315412464159044

> <r_j_QM_Dipole_Z_(debye)>
-0.563912203190112

> <r_j_Lowest_Frequency_(cm-1)>
67.9069733416303

> <r_j_Highest_Frequency_(cm-1)>
3177.68688531723

> <r_j_2nd_Lowest_Frequency_(cm-1)>
83.6354035434763

> <i_j_Num_Negative_Frequencies>
0

> <r_j_Zero_Point_Energy_(kcal/mol)>
267.458949639961

> <r_j_Entropy_(cal/mol/K)_298.15K_1.00E+00atm>
124.481390028456

> <r_j_Enthalpy_(kcal/mol)_298.15K_1.00E+00atm>
11.1724231127673

> <r_j_Free_Energy_(kcal/mol)_298.15K_1.00E+00atm>
-25.9417033242168

> <r_j_Internal_Energy_(kcal/mol)_298.15K_1.00E+00atm>
10.5799375239401

> <r_j_Heat_Capacity_(cal/mol/K)_298.15K_1.00E+00atm>
73.6669017329842

> <r_j_ln(Q)_298.15K_1.00E+00atm>
43.7845304821068

> <r_j_Total_Internal_Energy_(au)_298.15K_1.00E+00atm>
-740.694376010731

> <r_j_Total_Enthalpy_(au)_298.15K_1.00E+00atm>
-740.693431824838

> <r_j_Total_Free_Energy_(au)_298.15K_1.00E+00atm>
-740.752576950468

> <r_lp_tautomer_probability>
1

> <r_epik_Ionization_Penalty>
  0.0000

> <r_epik_Ionization_Penalty_Charging>
  0.0000

> <r_epik_Ionization_Penalty_Neutral>
  0.0000

> <r_epik_State_Penalty>
  0.0000

> <r_epik_Charging_Adjusted_Penalty>
0

> <i_epik_Tot_Q>
0

> <i_epik_Tot_abs_Q>
0

> <s_lp_Force_Field>
S-OPLS

> <r_lp_Energy>
22.0064

> <b_lp_Chiralities_Consistent>
1

$$$$
