5634_10-Undecenoic acid
                    3D
 Schrodinger Suite 2021-3.
 32 31  0  0  1  0            999 V2000
   -4.8597    3.6551   -0.8470 C   0  0  0  0  0  0
   -4.1324    3.0476    0.0912 C   0  0  0  0  0  0
   -2.6316    2.9820    0.1287 C   0  0  0  0  0  0
   -2.0919    1.5411    0.0520 C   0  0  0  0  0  0
   -0.5626    1.4676    0.1237 C   0  0  0  0  0  0
   -0.0116    0.0403    0.0309 C   0  0  0  0  0  0
    1.5189   -0.0328    0.0842 C   0  0  0  0  0  0
    2.0759   -1.4579   -0.0226 C   0  0  0  0  0  0
    3.6072   -1.5280    0.0172 C   0  0  0  0  0  0
    4.1740   -2.9422   -0.0964 C   0  0  0  0  0  0
    5.7508   -3.0207   -0.0591 C   0  0  0  0  0  0
    6.2131   -4.1825   -0.1641 O   0  0  0  0  0  0
    6.3483   -1.9209    0.0706 O   0  5  0  0  0  0
   -4.3914    4.1782   -1.6780 H   0  0  0  0  0  0
   -5.9459    3.6519   -0.8236 H   0  0  0  0  0  0
   -4.6459    2.5289    0.9031 H   0  0  0  0  0  0
   -2.2113    3.5764   -0.6928 H   0  0  0  0  0  0
   -2.2699    3.4396    1.0619 H   0  0  0  0  0  0
   -2.5262    0.9460    0.8681 H   0  0  0  0  0  0
   -2.4415    1.0782   -0.8804 H   0  0  0  0  0  0
   -0.1332    2.0749   -0.6862 H   0  0  0  0  0  0
   -0.2201    1.9305    1.0607 H   0  0  0  0  0  0
   -0.4344   -0.5659    0.8457 H   0  0  0  0  0  0
   -0.3647   -0.4232   -0.9021 H   0  0  0  0  0  0
    1.9388    0.5804   -0.7267 H   0  0  0  0  0  0
    1.8725    0.4256    1.0193 H   0  0  0  0  0  0
    1.6568   -2.0693    0.7916 H   0  0  0  0  0  0
    1.7106   -1.9159   -0.9550 H   0  0  0  0  0  0
    4.0332   -0.9145   -0.7869 H   0  0  0  0  0  0
    3.9824   -1.0734    0.9429 H   0  0  0  0  0  0
    3.7853   -3.5782    0.7136 H   0  0  0  0  0  0
    3.8344   -3.4188   -1.0287 H   0  0  0  0  0  0
  1  2  2  0  0  0
  1 14  1  0  0  0
  1 15  1  0  0  0
  2  3  1  0  0  0
  2 16  1  0  0  0
  3  4  1  0  0  0
  3 17  1  0  0  0
  3 18  1  0  0  0
  4  5  1  0  0  0
  4 19  1  0  0  0
  4 20  1  0  0  0
  5  6  1  0  0  0
  5 21  1  0  0  0
  5 22  1  0  0  0
  6  7  1  0  0  0
  6 23  1  0  0  0
  6 24  1  0  0  0
  7  8  1  0  0  0
  7 25  1  0  0  0
  7 26  1  0  0  0
  8  9  1  0  0  0
  8 27  1  0  0  0
  8 28  1  0  0  0
  9 10  1  0  0  0
  9 29  1  0  0  0
  9 30  1  0  0  0
 10 11  1  0  0  0
 10 31  1  0  0  0
 10 32  1  0  0  0
 11 12  2  0  0  0
 11 13  1  0  0  0
M  END
>  <i_m_Spin_multiplicity> (1)
1

>  <s_j_Task> (1)
Single Point

>  <s_j_QM_Method> (1)
DFT(b3lyp-d3)

>  <s_j_QM_Basis> (1)
cc-pvtz(-f)

>  <i_j_Number_of_canonical_orbitals> (1)
467

>  <i_j_Geometry_convergence_category> (1)
0

>  <r_j_Gas_Phase_Energy> (1)
-581.334812889094

>  <r_j_Final_Energy> (1)
-581.334812889094

>  <r_j_HOMO> (1)
-0.0457763537320566

>  <r_j_LUMO> (1)
0.0766598821227372

>  <r_j_Polarizability> (1)
146.589832888874

>  <r_j_QM_Dipole_(debye)> (1)
24.3966517309516

>  <r_j_QM_Dipole_X_(debye)> (1)
-21.1979955446853

>  <r_j_QM_Dipole_Y_(debye)> (1)
12.0747546311576

>  <r_j_QM_Dipole_Z_(debye)> (1)
0.204697743478637

>  <r_j_Lowest_Frequency_(cm-1)> (1)
41.726723534494

>  <r_j_Highest_Frequency_(cm-1)> (1)
3161.90926573828

>  <r_j_2nd_Lowest_Frequency_(cm-1)> (1)
51.1124316255577

>  <i_j_Num_Negative_Frequencies> (1)
0

>  <r_j_Zero_Point_Energy_(kcal/mol)> (1)
175.862488943443

>  <r_j_Entropy_(cal/mol/K)_298.15K_1.00E+00atm> (1)
120.334240541273

>  <r_j_Enthalpy_(kcal/mol)_298.15K_1.00E+00atm> (1)
9.79708020245202

>  <r_j_Free_Energy_(kcal/mol)_298.15K_1.00E+00atm> (1)
-26.0805736149286

>  <r_j_Internal_Energy_(kcal/mol)_298.15K_1.00E+00atm> (1)
9.20459461362475

>  <r_j_Heat_Capacity_(cal/mol/K)_298.15K_1.00E+00atm> (1)
53.9862002672003

>  <r_j_ln(Q)_298.15K_1.00E+00atm> (1)
44.0189164204832

>  <r_j_Total_Internal_Energy_(au)_298.15K_1.00E+00atm> (1)
-581.039889716768

>  <r_j_Total_Enthalpy_(au)_298.15K_1.00E+00atm> (1)
-581.038945530876

>  <r_j_Total_Free_Energy_(au)_298.15K_1.00E+00atm> (1)
-581.096120211949

>  <r_epik_Ionization_Penalty> (1)
  0.0049

>  <r_epik_Ionization_Penalty_Charging> (1)
  0.0049

>  <r_epik_Ionization_Penalty_Neutral> (1)
  0.0000

>  <r_epik_State_Penalty> (1)
  0.0035

>  <r_epik_Charging_Adjusted_Penalty> (1)
0.00839021531719891

>  <i_epik_Tot_Q> (1)
-1

>  <i_epik_Tot_abs_Q> (1)
1

>  <s_lp_Force_Field> (1)
S-OPLS

>  <r_lp_Energy> (1)
5.171533

>  <b_lp_Chiralities_Consistent> (1)
1

$$$$
