579897_Sitostenone
                    3D
 Schrodinger Suite 2021-3.
 78 81  0  0  1  0            999 V2000
   -0.6971   -1.9575    1.9110 C   0  0  0  0  0  0
   -0.9361   -0.5433    1.3701 C   0  0  0  0  0  0
   -0.1463   -0.1971    0.0868 C   0  0  0  0  0  0
    1.3704   -0.4485    0.2659 C   0  0  0  0  0  0
    2.0180    0.4072    1.3666 C   0  0  0  0  0  0
    3.5510    0.5336    1.2800 C   0  0  0  0  0  0
    4.2114   -0.8536    1.3695 C   0  0  0  0  0  0
    4.1324    1.4905    2.3521 C   0  0  0  0  0  0
    5.6673    1.6149    2.2965 C   0  0  0  0  0  0
    5.9745    2.7619    3.2581 C   0  0  0  0  0  0
    4.8429    3.7918    3.0341 C   0  0  0  0  0  0
    3.6419    2.9912    2.3659 C   0  0  0  0  0  0
    2.3512    3.1827    3.2009 C   0  0  0  0  0  0
    2.0246    4.6556    3.4944 C   0  0  0  0  0  0
    3.1770    5.4080    4.2203 C   0  0  0  0  0  0
    4.4379    4.5094    4.3368 C   0  0  0  0  0  0
    5.5816    5.2722    5.0282 C   0  0  0  0  0  0
    5.8620    6.6317    4.3709 C   0  0  0  0  0  0
    4.6249    7.4922    4.3448 C   0  0  0  0  0  0
    4.6386    8.7510    4.8290 C   0  0  0  0  0  0
    3.5122    9.6950    4.7237 C   0  0  0  0  0  0
    3.5765   10.8278    5.1826 O   0  0  0  0  0  0
    2.2933    9.2033    3.9574 C   0  0  0  0  0  0
    2.1233    7.6875    4.0848 C   0  0  0  0  0  0
    3.3886    6.8789    3.6912 C   0  0  0  0  0  0
    3.6075    6.9880    2.1587 C   0  0  0  0  0  0
    3.4354    3.5105    0.9288 C   0  0  0  0  0  0
   -0.4803    1.2428   -0.4056 C   0  0  0  0  0  0
   -1.9523    1.3737   -0.8343 C   0  0  0  0  0  0
    0.4224    1.7016   -1.5626 C   0  0  0  0  0  0
   -1.3787   -2.1773    2.7392 H   0  0  0  0  0  0
    0.3233   -2.0893    2.2841 H   0  0  0  0  0  0
   -0.8657   -2.7113    1.1327 H   0  0  0  0  0  0
   -2.0070   -0.4288    1.1740 H   0  0  0  0  0  0
   -0.6943    0.1911    2.1505 H   0  0  0  0  0  0
   -0.4848   -0.8860   -0.7042 H   0  0  0  0  0  0
    1.5264   -1.5122    0.4721 H   0  0  0  0  0  0
    1.8816   -0.2633   -0.6857 H   0  0  0  0  0  0
    1.5831    1.4051    1.3147 H   0  0  0  0  0  0
    1.7473    0.0152    2.3569 H   0  0  0  0  0  0
    3.7936    0.9476    0.2904 H   0  0  0  0  0  0
    4.0413   -1.3004    2.3574 H   0  0  0  0  0  0
    5.2905   -0.8061    1.2042 H   0  0  0  0  0  0
    3.8000   -1.5364    0.6211 H   0  0  0  0  0  0
    3.8794    1.0625    3.3358 H   0  0  0  0  0  0
    6.1836    0.6923    2.5746 H   0  0  0  0  0  0
    5.9842    1.8662    1.2748 H   0  0  0  0  0  0
    5.9357    2.3858    4.2898 H   0  0  0  0  0  0
    6.9718    3.1899    3.1144 H   0  0  0  0  0  0
    5.1976    4.5338    2.3105 H   0  0  0  0  0  0
    1.4964    2.7368    2.6858 H   0  0  0  0  0  0
    2.4468    2.6310    4.1444 H   0  0  0  0  0  0
    1.7773    5.1472    2.5496 H   0  0  0  0  0  0
    1.1094    4.7072    4.0936 H   0  0  0  0  0  0
    2.8660    5.5558    5.2635 H   0  0  0  0  0  0
    4.1552    3.7055    5.0307 H   0  0  0  0  0  0
    5.3034    5.4487    6.0754 H   0  0  0  0  0  0
    6.4950    4.6690    5.0465 H   0  0  0  0  0  0
    6.6742    7.1527    4.8876 H   0  0  0  0  0  0
    6.2038    6.4683    3.3389 H   0  0  0  0  0  0
    5.5359    9.1581    5.2899 H   0  0  0  0  0  0
    1.4157    9.7444    4.3220 H   0  0  0  0  0  0
    2.4273    9.4984    2.9079 H   0  0  0  0  0  0
    1.8819    7.4589    5.1305 H   0  0  0  0  0  0
    1.2708    7.3484    3.4864 H   0  0  0  0  0  0
    2.7293    6.6526    1.6016 H   0  0  0  0  0  0
    4.4645    6.4042    1.8211 H   0  0  0  0  0  0
    3.7939    8.0286    1.8791 H   0  0  0  0  0  0
    3.2425    4.5841    0.9180 H   0  0  0  0  0  0
    2.5933    3.0246    0.4285 H   0  0  0  0  0  0
    4.3293    3.3403    0.3201 H   0  0  0  0  0  0
   -0.3212    1.9345    0.4352 H   0  0  0  0  0  0
   -2.1790    0.6832   -1.6562 H   0  0  0  0  0  0
   -2.1628    2.3885   -1.1880 H   0  0  0  0  0  0
   -2.6490    1.1628   -0.0192 H   0  0  0  0  0  0
    0.3743    0.9941   -2.3997 H   0  0  0  0  0  0
    1.4706    1.7945   -1.2659 H   0  0  0  0  0  0
    0.1016    2.6793   -1.9373 H   0  0  0  0  0  0
  1  2  1  0  0  0
  1 31  1  0  0  0
  1 32  1  0  0  0
  1 33  1  0  0  0
  2  3  1  0  0  0
  2 34  1  0  0  0
  2 35  1  0  0  0
  3  4  1  0  0  0
  3 28  1  0  0  0
  3 36  1  0  0  0
  4  5  1  0  0  0
  4 37  1  0  0  0
  4 38  1  0  0  0
  5  6  1  0  0  0
  5 39  1  0  0  0
  5 40  1  0  0  0
  6  7  1  0  0  0
  6  8  1  0  0  0
  6 41  1  0  0  0
  7 42  1  0  0  0
  7 43  1  0  0  0
  7 44  1  0  0  0
  8 12  1  0  0  0
  8  9  1  0  0  0
  8 45  1  0  0  0
  9 10  1  0  0  0
  9 46  1  0  0  0
  9 47  1  0  0  0
 10 11  1  0  0  0
 10 48  1  0  0  0
 10 49  1  0  0  0
 11 16  1  0  0  0
 11 12  1  0  0  0
 11 50  1  0  0  0
 12 13  1  0  0  0
 12 27  1  0  0  0
 13 14  1  0  0  0
 13 51  1  0  0  0
 13 52  1  0  0  0
 14 15  1  0  0  0
 14 53  1  0  0  0
 14 54  1  0  0  0
 15 25  1  0  0  0
 15 16  1  0  0  0
 15 55  1  0  0  0
 16 17  1  0  0  0
 16 56  1  0  0  0
 17 18  1  0  0  0
 17 57  1  0  0  0
 17 58  1  0  0  0
 18 19  1  0  0  0
 18 59  1  0  0  0
 18 60  1  0  0  0
 19 25  1  0  0  0
 19 20  2  0  0  0
 20 21  1  0  0  0
 20 61  1  0  0  0
 21 22  2  0  0  0
 21 23  1  0  0  0
 23 24  1  0  0  0
 23 62  1  0  0  0
 23 63  1  0  0  0
 24 25  1  0  0  0
 24 64  1  0  0  0
 24 65  1  0  0  0
 25 26  1  0  0  0
 26 66  1  0  0  0
 26 67  1  0  0  0
 26 68  1  0  0  0
 27 69  1  0  0  0
 27 70  1  0  0  0
 27 71  1  0  0  0
 28 29  1  0  0  0
 28 30  1  0  0  0
 28 72  1  0  0  0
 29 73  1  0  0  0
 29 74  1  0  0  0
 29 75  1  0  0  0
 30 76  1  0  0  0
 30 77  1  0  0  0
 30 78  1  0  0  0
M  END
>  <i_m_Spin_multiplicity> (1)
1

>  <s_j_Task> (1)
Single Point

>  <s_j_QM_Method> (1)
DFT(b3lyp-d3)

>  <s_j_QM_Basis> (1)
cc-pvtz(-f)

>  <i_j_Number_of_canonical_orbitals> (1)
1102

>  <i_j_Geometry_convergence_category> (1)
3

>  <r_j_Gas_Phase_Energy> (1)
-1209.71525128424

>  <r_j_Final_Energy> (1)
-1209.71525128424

>  <r_j_HOMO> (1)
-0.216173174609351

>  <r_j_LUMO> (1)
-0.0323927738615522

>  <r_j_Polarizability> (1)
332.682852225185

>  <r_j_QM_Dipole_(debye)> (1)
4.94812657295971

>  <r_j_QM_Dipole_X_(debye)> (1)
-0.0403547985162079

>  <r_j_QM_Dipole_Y_(debye)> (1)
-4.64760572795478

>  <r_j_QM_Dipole_Z_(debye)> (1)
-1.69767166134935

>  <r_j_Lowest_Frequency_(cm-1)> (1)
41.4493885704354

>  <r_j_Highest_Frequency_(cm-1)> (1)
3113.84803396725

>  <r_j_2nd_Lowest_Frequency_(cm-1)> (1)
45.2606436289775

>  <i_j_Num_Negative_Frequencies> (1)
0

>  <r_j_Zero_Point_Energy_(kcal/mol)> (1)
451.09680519516

>  <r_j_Entropy_(cal/mol/K)_298.15K_1.00E+00atm> (1)
175.587468045439

>  <r_j_Enthalpy_(kcal/mol)_298.15K_1.00E+00atm> (1)
18.7426680969282

>  <r_j_Free_Energy_(kcal/mol)_298.15K_1.00E+00atm> (1)
-33.6087355008193

>  <r_j_Internal_Energy_(kcal/mol)_298.15K_1.00E+00atm> (1)
18.1501825081009

>  <r_j_Heat_Capacity_(cal/mol/K)_298.15K_1.00E+00atm> (1)
123.576799380251

>  <r_j_ln(Q)_298.15K_1.00E+00atm> (1)
56.7249839229712

>  <r_j_Total_Internal_Energy_(au)_298.15K_1.00E+00atm> (1)
-1208.96745860519

>  <r_j_Total_Enthalpy_(au)_298.15K_1.00E+00atm> (1)
-1208.9665144193

>  <r_j_Total_Free_Energy_(au)_298.15K_1.00E+00atm> (1)
-1209.04994169187

>  <r_lp_tautomer_probability> (1)
1

>  <r_epik_Ionization_Penalty> (1)
  0.0000

>  <r_epik_Ionization_Penalty_Charging> (1)
  0.0000

>  <r_epik_Ionization_Penalty_Neutral> (1)
  0.0000

>  <r_epik_State_Penalty> (1)
  0.0000

>  <r_epik_Charging_Adjusted_Penalty> (1)
0

>  <i_epik_Tot_Q> (1)
0

>  <i_epik_Tot_abs_Q> (1)
0

>  <s_lp_Force_Field> (1)
S-OPLS

>  <r_lp_Energy> (1)
54.754103

>  <b_lp_Chiralities_Consistent> (1)
1

$$$$
