586537_Delta-tocopherol (or 8-methyltocol)
                    3D
 Schrodinger Suite 2021-3.
 75 76  0  0  1  0            999 V2000
   -2.1035    7.2836    1.9318 C   0  0  0  0  0  0
   -3.1396    7.7290    0.9325 C   0  0  0  0  0  0
   -3.3423    9.0719    0.6322 C   0  0  0  0  0  0
   -4.3107    9.4593   -0.3011 C   0  0  0  0  0  0
   -5.0768    8.4916   -0.9425 C   0  0  0  0  0  0
   -4.8928    7.1301   -0.6639 C   0  0  0  0  0  0
   -3.9265    6.7599    0.2771 C   0  0  0  0  0  0
   -3.6527    5.4522    0.6076 O   0  0  0  0  0  0
   -4.5992    4.4305    0.2095 C   0  0  0  0  0  0
   -5.0536    4.6992   -1.2359 C   0  0  0  0  0  0
   -5.7173    6.0735   -1.3657 C   0  0  0  0  0  0
   -5.7771    4.4573    1.1950 C   0  0  0  0  0  0
   -3.8301    3.1058    0.3478 C   0  0  0  0  0  0
   -2.5540    2.9881   -0.4937 C   0  0  0  0  0  0
   -1.8088    1.6726   -0.2370 C   0  0  0  0  0  0
   -0.4302    1.5603   -0.9186 C   0  0  0  0  0  0
   -0.5342    1.7146   -2.4440 C   0  0  0  0  0  0
    0.2399    0.2288   -0.5253 C   0  0  0  0  0  0
    1.7096    0.0852   -0.9406 C   0  0  0  0  0  0
    2.3096   -1.2592   -0.5091 C   0  0  0  0  0  0
    3.8172   -1.4292   -0.7820 C   0  0  0  0  0  0
    4.1400   -1.3221   -2.2806 C   0  0  0  0  0  0
    4.3090   -2.7638   -0.1865 C   0  0  0  0  0  0
    5.8295   -2.9671   -0.1967 C   0  0  0  0  0  0
    6.2517   -4.2850    0.4658 C   0  0  0  0  0  0
    7.7723   -4.4954    0.5953 C   0  0  0  0  0  0
    8.4760   -4.5360   -0.7694 C   0  0  0  0  0  0
    8.0695   -5.7766    1.3880 C   0  0  0  0  0  0
   -4.4492   10.8053   -0.5379 O   0  0  0  0  0  0
   -1.6072    8.1397    2.3960 H   0  0  0  0  0  0
   -1.3421    6.6563    1.4546 H   0  0  0  0  0  0
   -2.5580    6.6708    2.7176 H   0  0  0  0  0  0
   -2.7523    9.8411    1.1204 H   0  0  0  0  0  0
   -5.8251    8.7854   -1.6775 H   0  0  0  0  0  0
   -4.1746    4.6682   -1.8865 H   0  0  0  0  0  0
   -5.7307    3.9015   -1.5600 H   0  0  0  0  0  0
   -6.7319    6.0486   -0.9458 H   0  0  0  0  0  0
   -5.8360    6.3343   -2.4234 H   0  0  0  0  0  0
   -6.5340    3.7168    0.9153 H   0  0  0  0  0  0
   -6.2492    5.4423    1.2213 H   0  0  0  0  0  0
   -5.4221    4.2301    2.2040 H   0  0  0  0  0  0
   -3.5676    2.9886    1.4070 H   0  0  0  0  0  0
   -4.5194    2.2862    0.1044 H   0  0  0  0  0  0
   -2.8035    3.0612   -1.5574 H   0  0  0  0  0  0
   -1.9025    3.8398   -0.2654 H   0  0  0  0  0  0
   -1.6717    1.5477    0.8465 H   0  0  0  0  0  0
   -2.4367    0.8286   -0.5612 H   0  0  0  0  0  0
    0.1969    2.3808   -0.5357 H   0  0  0  0  0  0
   -1.1864    0.9385   -2.8647 H   0  0  0  0  0  0
    0.4424    1.6262   -2.9280 H   0  0  0  0  0  0
   -0.9463    2.6875   -2.7267 H   0  0  0  0  0  0
    0.1723    0.1070    0.5651 H   0  0  0  0  0  0
   -0.3413   -0.6001   -0.9572 H   0  0  0  0  0  0
    1.7985    0.1937   -2.0267 H   0  0  0  0  0  0
    2.2943    0.9059   -0.5001 H   0  0  0  0  0  0
    2.1318   -1.3941    0.5673 H   0  0  0  0  0  0
    1.7639   -2.0741   -1.0086 H   0  0  0  0  0  0
    4.3445   -0.6146   -0.2604 H   0  0  0  0  0  0
    3.6148   -2.1050   -2.8427 H   0  0  0  0  0  0
    5.2105   -1.4345   -2.4742 H   0  0  0  0  0  0
    3.8378   -0.3553   -2.6931 H   0  0  0  0  0  0
    3.9548   -2.8374    0.8515 H   0  0  0  0  0  0
    3.8279   -3.5925   -0.7279 H   0  0  0  0  0  0
    6.1998   -2.9417   -1.2273 H   0  0  0  0  0  0
    6.3113   -2.1266    0.3241 H   0  0  0  0  0  0
    5.8051   -4.3354    1.4690 H   0  0  0  0  0  0
    5.8232   -5.1278   -0.0976 H   0  0  0  0  0  0
    8.1790   -3.6436    1.1617 H   0  0  0  0  0  0
    8.0674   -5.3437   -1.3898 H   0  0  0  0  0  0
    9.5497   -4.7187   -0.6520 H   0  0  0  0  0  0
    8.3593   -3.5988   -1.3219 H   0  0  0  0  0  0
    7.6829   -6.6572    0.8595 H   0  0  0  0  0  0
    7.6026   -5.7526    2.3789 H   0  0  0  0  0  0
    9.1467   -5.9196    1.5265 H   0  0  0  0  0  0
   -5.1414   10.9358   -1.1985 H   0  0  0  0  0  0
  1  2  1  0  0  0
  1 30  1  0  0  0
  1 31  1  0  0  0
  1 32  1  0  0  0
  2  7  1  0  0  0
  2  3  2  0  0  0
  3  4  1  0  0  0
  3 33  1  0  0  0
  4  5  2  0  0  0
  4 29  1  0  0  0
  5  6  1  0  0  0
  5 34  1  0  0  0
  6 11  1  0  0  0
  6  7  2  0  0  0
  7  8  1  0  0  0
  8  9  1  0  0  0
  9 10  1  0  0  0
  9 12  1  0  0  0
  9 13  1  0  0  0
 10 11  1  0  0  0
 10 35  1  0  0  0
 10 36  1  0  0  0
 11 37  1  0  0  0
 11 38  1  0  0  0
 12 39  1  0  0  0
 12 40  1  0  0  0
 12 41  1  0  0  0
 13 14  1  0  0  0
 13 42  1  0  0  0
 13 43  1  0  0  0
 14 15  1  0  0  0
 14 44  1  0  0  0
 14 45  1  0  0  0
 15 16  1  0  0  0
 15 46  1  0  0  0
 15 47  1  0  0  0
 16 17  1  0  0  0
 16 18  1  0  0  0
 16 48  1  0  0  0
 17 49  1  0  0  0
 17 50  1  0  0  0
 17 51  1  0  0  0
 18 19  1  0  0  0
 18 52  1  0  0  0
 18 53  1  0  0  0
 19 20  1  0  0  0
 19 54  1  0  0  0
 19 55  1  0  0  0
 20 21  1  0  0  0
 20 56  1  0  0  0
 20 57  1  0  0  0
 21 22  1  0  0  0
 21 23  1  0  0  0
 21 58  1  0  0  0
 22 59  1  0  0  0
 22 60  1  0  0  0
 22 61  1  0  0  0
 23 24  1  0  0  0
 23 62  1  0  0  0
 23 63  1  0  0  0
 24 25  1  0  0  0
 24 64  1  0  0  0
 24 65  1  0  0  0
 25 26  1  0  0  0
 25 66  1  0  0  0
 25 67  1  0  0  0
 26 27  1  0  0  0
 26 28  1  0  0  0
 26 68  1  0  0  0
 27 69  1  0  0  0
 27 70  1  0  0  0
 27 71  1  0  0  0
 28 72  1  0  0  0
 28 73  1  0  0  0
 28 74  1  0  0  0
 29 75  1  0  0  0
M  END
>  <i_m_Spin_multiplicity> (1)
1

>  <s_j_Task> (1)
Single Point

>  <s_j_QM_Method> (1)
DFT(b3lyp-d3)

>  <s_j_QM_Basis> (1)
cc-pvtz(-f)

>  <i_j_Number_of_canonical_orbitals> (1)
1067

>  <i_j_Geometry_convergence_category> (1)
3

>  <r_j_Gas_Phase_Energy> (1)
-1207.54576581571

>  <r_j_Final_Energy> (1)
-1207.54576581571

>  <r_j_HOMO> (1)
-0.156053006333452

>  <r_j_LUMO> (1)
0.0063827062767794

>  <r_j_Polarizability> (1)
331.717597116368

>  <r_j_QM_Dipole_(debye)> (1)
2.34258359123673

>  <r_j_QM_Dipole_X_(debye)> (1)
-1.6057347687923

>  <r_j_QM_Dipole_Y_(debye)> (1)
-1.29466961116883

>  <r_j_QM_Dipole_Z_(debye)> (1)
-1.11047032024231

>  <r_j_Lowest_Frequency_(cm-1)> (1)
24.3399352613493

>  <r_j_Highest_Frequency_(cm-1)> (1)
3774.62845895695

>  <r_j_2nd_Lowest_Frequency_(cm-1)> (1)
32.409547492035

>  <i_j_Num_Negative_Frequencies> (1)
0

>  <r_j_Zero_Point_Energy_(kcal/mol)> (1)
428.040610984613

>  <r_j_Entropy_(cal/mol/K)_298.15K_1.00E+00atm> (1)
188.552619785141

>  <r_j_Enthalpy_(kcal/mol)_298.15K_1.00E+00atm> (1)
20.1391079585601

>  <r_j_Free_Energy_(kcal/mol)_298.15K_1.00E+00atm> (1)
-36.0778556303796

>  <r_j_Internal_Energy_(kcal/mol)_298.15K_1.00E+00atm> (1)
19.5466223697329

>  <r_j_Heat_Capacity_(cal/mol/K)_298.15K_1.00E+00atm> (1)
125.755786279901

>  <r_j_ln(Q)_298.15K_1.00E+00atm> (1)
60.8923766429318

>  <r_j_Total_Internal_Energy_(au)_298.15K_1.00E+00atm> (1)
-1206.83249015255

>  <r_j_Total_Enthalpy_(au)_298.15K_1.00E+00atm> (1)
-1206.83154596666

>  <r_j_Total_Free_Energy_(au)_298.15K_1.00E+00atm> (1)
-1206.92113340123

>  <r_lp_tautomer_probability> (1)
1

>  <r_epik_Ionization_Penalty> (1)
  0.0000

>  <r_epik_Ionization_Penalty_Charging> (1)
  0.0000

>  <r_epik_Ionization_Penalty_Neutral> (1)
  0.0000

>  <r_epik_State_Penalty> (1)
  0.0000

>  <r_epik_Charging_Adjusted_Penalty> (1)
0

>  <i_epik_Tot_Q> (1)
0

>  <i_epik_Tot_abs_Q> (1)
0

>  <s_lp_Force_Field> (1)
S-OPLS

>  <r_lp_Energy> (1)
25.974231

>  <b_lp_Chiralities_Consistent> (1)
1

$$$$
