5889_Dibenz[a,h]anthracene
                    3D
 Schrodinger Suite 2021-3.
 36 40  0  0  1  0            999 V2000
    8.3708    7.7476    0.6549 C   0  0  0  0  0  0
    7.1521    8.4306    0.5045 C   0  0  0  0  0  0
    5.9716    7.7267    0.3416 C   0  0  0  0  0  0
    5.9544    6.3145    0.3217 C   0  0  0  0  0  0
    7.1932    5.6275    0.4746 C   0  0  0  0  0  0
    8.3850    6.3661    0.6393 C   0  0  0  0  0  0
    7.2193    4.1898    0.4599 C   0  0  0  0  0  0
    6.0832    3.4653    0.3030 C   0  0  0  0  0  0
    4.8064    4.1063    0.1449 C   0  0  0  0  0  0
    3.6424    3.3442   -0.0158 C   0  0  0  0  0  0
    2.3800    3.9229   -0.1729 C   0  0  0  0  0  0
    2.3029    5.3541   -0.1655 C   0  0  0  0  0  0
    1.0263    5.9956   -0.3239 C   0  0  0  0  0  0
   -0.1100    5.2716   -0.4808 C   0  0  0  0  0  0
   -0.0841    3.8341   -0.4950 C   0  0  0  0  0  0
   -1.2766    3.0964   -0.6595 C   0  0  0  0  0  0
   -1.2641    1.7148   -0.6747 C   0  0  0  0  0  0
   -0.0459    1.0313   -0.5241 C   0  0  0  0  0  0
    1.1349    1.7349   -0.3616 C   0  0  0  0  0  0
    1.1547    3.1468   -0.3419 C   0  0  0  0  0  0
    3.4668    6.1161   -0.0047 C   0  0  0  0  0  0
    4.7293    5.5376    0.1525 C   0  0  0  0  0  0
    9.2950    8.3033    0.7825 H   0  0  0  0  0  0
    7.1343    9.5165    0.5158 H   0  0  0  0  0  0
    5.0467    8.2810    0.2279 H   0  0  0  0  0  0
    9.3210    5.8255    0.7546 H   0  0  0  0  0  0
    8.1779    3.6916    0.5785 H   0  0  0  0  0  0
    6.1194    2.3791    0.2941 H   0  0  0  0  0  0
    3.7506    2.2645   -0.0149 H   0  0  0  0  0  0
    0.9906    7.0818   -0.3153 H   0  0  0  0  0  0
   -1.0686    5.7698   -0.5996 H   0  0  0  0  0  0
   -2.2121    3.6377   -0.7749 H   0  0  0  0  0  0
   -2.1888    1.1598   -0.8021 H   0  0  0  0  0  0
   -0.0283   -0.0546   -0.5350 H   0  0  0  0  0  0
    2.0592    1.1793   -0.2478 H   0  0  0  0  0  0
    3.3583    7.1956   -0.0057 H   0  0  0  0  0  0
  1  6  1  0  0  0
  1  2  2  0  0  0
  1 23  1  0  0  0
  2  3  1  0  0  0
  2 24  1  0  0  0
  3  4  2  0  0  0
  3 25  1  0  0  0
  4 22  1  0  0  0
  4  5  1  0  0  0
  5  6  2  0  0  0
  5  7  1  0  0  0
  6 26  1  0  0  0
  7  8  2  0  0  0
  7 27  1  0  0  0
  8  9  1  0  0  0
  8 28  1  0  0  0
  9 22  1  0  0  0
  9 10  2  0  0  0
 10 11  1  0  0  0
 10 29  1  0  0  0
 11 20  1  0  0  0
 11 12  2  0  0  0
 12 13  1  0  0  0
 12 21  1  0  0  0
 13 14  2  0  0  0
 13 30  1  0  0  0
 14 15  1  0  0  0
 14 31  1  0  0  0
 15 20  1  0  0  0
 15 16  2  0  0  0
 16 17  1  0  0  0
 16 32  1  0  0  0
 17 18  2  0  0  0
 17 33  1  0  0  0
 18 19  1  0  0  0
 18 34  1  0  0  0
 19 20  2  0  0  0
 19 35  1  0  0  0
 21 22  2  0  0  0
 21 36  1  0  0  0
M  END
>  <i_m_Spin_multiplicity> (1)
1

>  <s_j_Task> (1)
Single Point

>  <s_j_QM_Method> (1)
DFT(b3lyp-d3)

>  <s_j_QM_Basis> (1)
cc-pvtz(-f)

>  <i_j_Number_of_canonical_orbitals> (1)
610

>  <i_j_Geometry_convergence_category> (1)
0

>  <r_j_Gas_Phase_Energy> (1)
-847.100628283479

>  <r_j_Final_Energy> (1)
-847.100628283479

>  <r_j_HOMO> (1)
-0.18044411049575

>  <r_j_LUMO> (1)
-0.0396876317783447

>  <r_j_Polarizability> (1)
288.995442465582

>  <r_j_QM_Dipole_(debye)> (1)
0.00180067070541267

>  <r_j_QM_Dipole_X_(debye)> (1)
0.000710873554563005

>  <r_j_QM_Dipole_Y_(debye)> (1)
0.00163534769103062

>  <r_j_QM_Dipole_Z_(debye)> (1)
0.000250423058433379

>  <r_j_Lowest_Frequency_(cm-1)> (1)
56.6413819422421

>  <r_j_Highest_Frequency_(cm-1)> (1)
3158.52495531517

>  <r_j_2nd_Lowest_Frequency_(cm-1)> (1)
86.0066578093843

>  <i_j_Num_Negative_Frequencies> (1)
0

>  <r_j_Zero_Point_Energy_(kcal/mol)> (1)
180.034032691496

>  <r_j_Entropy_(cal/mol/K)_298.15K_1.00E+00atm> (1)
117.039070452714

>  <r_j_Enthalpy_(kcal/mol)_298.15K_1.00E+00atm> (1)
9.58165825179519

>  <r_j_Free_Energy_(kcal/mol)_298.15K_1.00E+00atm> (1)
-25.3135406036814

>  <r_j_Internal_Energy_(kcal/mol)_298.15K_1.00E+00atm> (1)
8.98917266296792

>  <r_j_Heat_Capacity_(cal/mol/K)_298.15K_1.00E+00atm> (1)
63.133531610505

>  <r_j_ln(Q)_298.15K_1.00E+00atm> (1)
42.7243144492093

>  <r_j_Total_Internal_Energy_(au)_298.15K_1.00E+00atm> (1)
-846.799400629728

>  <r_j_Total_Enthalpy_(au)_298.15K_1.00E+00atm> (1)
-846.798456443836

>  <r_j_Total_Free_Energy_(au)_298.15K_1.00E+00atm> (1)
-846.854065483259

>  <r_lp_tautomer_probability> (1)
1

>  <r_epik_Ionization_Penalty> (1)
  0.0000

>  <r_epik_Ionization_Penalty_Charging> (1)
  0.0000

>  <r_epik_Ionization_Penalty_Neutral> (1)
  0.0000

>  <r_epik_State_Penalty> (1)
  0.0000

>  <r_epik_Charging_Adjusted_Penalty> (1)
0

>  <i_epik_Tot_Q> (1)
0

>  <i_epik_Tot_abs_Q> (1)
0

>  <s_lp_Force_Field> (1)
S-OPLS

>  <r_lp_Energy> (1)
51.851

>  <b_lp_Chiralities_Consistent> (1)
1

$$$$
