5943_Carbon tetrachloride
                    3D
 Schrodinger Suite 2021-3.
  5  4  0  0  1  0            999 V2000
    0.1792    0.3089    0.2276 C   0  0  0  0  0  0
    0.6584    1.4558   -1.0666 Cl  0  0  0  0  0  0
   -0.6662   -1.0958   -0.5016 Cl  0  0  0  0  0  0
    1.6431   -0.2586    1.0958 Cl  0  0  0  0  0  0
   -0.9180    1.1343    1.3827 Cl  0  0  0  0  0  0
  1  2  1  0  0  0
  1  3  1  0  0  0
  1  4  1  0  0  0
  1  5  1  0  0  0
M  END
>  <i_m_Spin_multiplicity> (1)
1

>  <s_j_Task> (1)
Single Point

>  <s_j_QM_Method> (1)
DFT(b3lyp-d3)

>  <s_j_QM_Basis> (1)
cc-pvtz(-f)

>  <i_j_Number_of_canonical_orbitals> (1)
131

>  <i_j_Geometry_convergence_category> (1)
0

>  <r_j_Gas_Phase_Energy> (1)
-1879.0175063565

>  <r_j_Final_Energy> (1)
-1879.0175063565

>  <r_j_HOMO> (1)
-0.321578711695783

>  <r_j_LUMO> (1)
-0.0780925274534942

>  <r_j_Polarizability> (1)
59.9046304570403

>  <r_j_QM_Dipole_(debye)> (1)
0.000823410039851058

>  <r_j_QM_Dipole_X_(debye)> (1)
4.79911894707602e-05

>  <r_j_QM_Dipole_Y_(debye)> (1)
-0.000531974354834283

>  <r_j_QM_Dipole_Z_(debye)> (1)
0.000626661172611923

>  <r_j_Lowest_Frequency_(cm-1)> (1)
213.159431151455

>  <r_j_Highest_Frequency_(cm-1)> (1)
727.804124523581

>  <r_j_2nd_Lowest_Frequency_(cm-1)> (1)
213.563442192645

>  <i_j_Num_Negative_Frequencies> (1)
0

>  <r_j_Zero_Point_Energy_(kcal/mol)> (1)
5.67076034482675

>  <r_j_Entropy_(cal/mol/K)_298.15K_1.00E+00atm> (1)
79.3962997817818

>  <r_j_Enthalpy_(kcal/mol)_298.15K_1.00E+00atm> (1)
4.18781430891188

>  <r_j_Free_Energy_(kcal/mol)_298.15K_1.00E+00atm> (1)
-19.4841924710264

>  <r_j_Internal_Energy_(kcal/mol)_298.15K_1.00E+00atm> (1)
3.59532872008461

>  <r_j_Heat_Capacity_(cal/mol/K)_298.15K_1.00E+00atm> (1)
18.3067774770393

>  <r_j_ln(Q)_298.15K_1.00E+00atm> (1)
32.8855128942327

>  <r_j_Total_Internal_Energy_(au)_298.15K_1.00E+00atm> (1)
-1879.00273990355

>  <r_j_Total_Enthalpy_(au)_298.15K_1.00E+00atm> (1)
-1879.00179571765

>  <r_j_Total_Free_Energy_(au)_298.15K_1.00E+00atm> (1)
-1879.03951946193

>  <r_lp_tautomer_probability> (1)
1

>  <r_epik_Ionization_Penalty> (1)
  0.0000

>  <r_epik_Ionization_Penalty_Charging> (1)
  0.0000

>  <r_epik_Ionization_Penalty_Neutral> (1)
  0.0000

>  <r_epik_State_Penalty> (1)
  0.0000

>  <r_epik_Charging_Adjusted_Penalty> (1)
0

>  <i_epik_Tot_Q> (1)
0

>  <i_epik_Tot_abs_Q> (1)
0

>  <s_lp_Force_Field> (1)
S-OPLS

>  <r_lp_Energy> (1)
0.132176

>  <b_lp_Chiralities_Consistent> (1)
1

$$$$
