5971_2-Propenyl Isothiocyanate
                    3D
 Schrodinger Suite 2021-3.
 11 10  0  0  1  0            999 V2000
   -0.3819    1.1608    0.0400 C   0  0  0  0  0  0
    0.4706    0.1468    0.1687 C   0  0  0  0  0  0
    1.7552    0.0276   -0.6106 C   0  0  0  0  0  0
    2.9116   -0.0736    0.2462 N   0  0  0  0  0  0
    3.3207   -0.0870    1.3697 C   0  0  0  0  0  0
    3.9813   -0.1214    2.8168 S   0  0  0  0  0  0
   -0.1911    1.9853   -0.6427 H   0  0  0  0  0  0
   -1.3039    1.2035    0.6112 H   0  0  0  0  0  0
    0.2703   -0.6640    0.8672 H   0  0  0  0  0  0
    1.7417   -0.8665   -1.2472 H   0  0  0  0  0  0
    1.8914    0.8895   -1.2733 H   0  0  0  0  0  0
  1  2  2  0  0  0
  1  7  1  0  0  0
  1  8  1  0  0  0
  2  3  1  0  0  0
  2  9  1  0  0  0
  3  4  1  0  0  0
  3 10  1  0  0  0
  3 11  1  0  0  0
  4  5  2  0  0  0
  5  6  2  0  0  0
M  END
>  <i_m_Spin_multiplicity> (1)
1

>  <s_j_Task> (1)
Single Point

>  <s_j_QM_Method> (1)
DFT(b3lyp-d3)

>  <s_j_QM_Basis> (1)
cc-pvtz(-f)

>  <i_j_Number_of_canonical_orbitals> (1)
187

>  <i_j_Geometry_convergence_category> (1)
0

>  <r_j_Gas_Phase_Energy> (1)
-608.449292226798

>  <r_j_Final_Energy> (1)
-608.449292226798

>  <r_j_HOMO> (1)
-0.257619772907116

>  <r_j_LUMO> (1)
-0.0386584664630467

>  <r_j_Polarizability> (1)
73.997021033933

>  <r_j_QM_Dipole_(debye)> (1)
3.33552913076457

>  <r_j_QM_Dipole_X_(debye)> (1)
-2.37256541851245

>  <r_j_QM_Dipole_Y_(debye)> (1)
0.221504541814304

>  <r_j_QM_Dipole_Z_(debye)> (1)
-2.33401449331694

>  <r_j_Lowest_Frequency_(cm-1)> (1)
76.0415179421162

>  <r_j_Highest_Frequency_(cm-1)> (1)
3178.80082664819

>  <r_j_2nd_Lowest_Frequency_(cm-1)> (1)
111.147984497329

>  <i_j_Num_Negative_Frequencies> (1)
0

>  <r_j_Zero_Point_Energy_(kcal/mol)> (1)
51.2030787471878

>  <r_j_Entropy_(cal/mol/K)_298.15K_1.00E+00atm> (1)
81.3217355449137

>  <r_j_Enthalpy_(kcal/mol)_298.15K_1.00E+00atm> (1)
4.65768006917273

>  <r_j_Free_Energy_(kcal/mol)_298.15K_1.00E+00atm> (1)
-19.5883953835433

>  <r_j_Internal_Energy_(kcal/mol)_298.15K_1.00E+00atm> (1)
4.06519448034546

>  <r_j_Heat_Capacity_(cal/mol/K)_298.15K_1.00E+00atm> (1)
21.6641884877401

>  <r_j_ln(Q)_298.15K_1.00E+00atm> (1)
33.0613870665027

>  <r_j_Total_Internal_Energy_(au)_298.15K_1.00E+00atm> (1)
-608.361216626556

>  <r_j_Total_Enthalpy_(au)_298.15K_1.00E+00atm> (1)
-608.360272440664

>  <r_j_Total_Free_Energy_(au)_298.15K_1.00E+00atm> (1)
-608.398911021613

>  <r_lp_tautomer_probability> (1)
1

>  <r_epik_Ionization_Penalty> (1)
  0.0000

>  <r_epik_Ionization_Penalty_Charging> (1)
  0.0000

>  <r_epik_Ionization_Penalty_Neutral> (1)
  0.0000

>  <r_epik_State_Penalty> (1)
  0.0000

>  <r_epik_Charging_Adjusted_Penalty> (1)
0

>  <i_epik_Tot_Q> (1)
0

>  <i_epik_Tot_abs_Q> (1)
0

>  <s_lp_Force_Field> (1)
S-OPLS

>  <r_lp_Energy> (1)
1.53177

>  <b_lp_Chiralities_Consistent> (1)
1

>  <s_epik_Chemistry_Notes> (1)
This compound has an imine and may undergo hydrolysis.

$$$$
