5976_1,1-Dimethylhydrazine
                    3D
 Schrodinger Suite 2021-3.
 13 12  0  0  1  0            999 V2000
   -0.0520   -0.0178   -0.0146 C   0  0  0  0  0  0
    1.4536   -0.0117    0.0171 N   0  3  1  0  0  0
    1.9843    0.7021    1.2324 C   0  0  0  0  0  0
    1.9227   -1.3831    0.0427 N   0  0  0  0  0  0
   -0.4019    1.0145    0.0031 H   0  0  0  0  0  0
   -0.3957   -0.5698    0.8594 H   0  0  0  0  0  0
   -0.3807   -0.5097   -0.9312 H   0  0  0  0  0  0
    1.5994    1.7221    1.2292 H   0  0  0  0  0  0
    3.0741    0.7122    1.1841 H   0  0  0  0  0  0
    1.6458    0.1516    2.1093 H   0  0  0  0  0  0
    1.5930   -1.8477   -0.8033 H   0  0  0  0  0  0
    2.9425   -1.3707    0.0245 H   0  0  0  0  0  0
    1.7834    0.4977   -0.8154 H   0  0  0  0  0  0
  1  2  1  0  0  0
  1  5  1  0  0  0
  1  6  1  0  0  0
  1  7  1  0  0  0
  2  3  1  0  0  0
  2  4  1  0  0  0
  2 13  1  0  0  0
  3  8  1  0  0  0
  3  9  1  0  0  0
  3 10  1  0  0  0
  4 11  1  0  0  0
  4 12  1  0  0  0
M  END
>  <i_m_Spin_multiplicity> (1)
1

>  <s_j_Task> (1)
Single Point

>  <s_j_QM_Method> (1)
DFT(b3lyp-d3)

>  <s_j_QM_Basis> (1)
cc-pvtz(-f)

>  <i_j_Number_of_canonical_orbitals> (1)
173

>  <i_j_Geometry_convergence_category> (1)
0

>  <r_j_Gas_Phase_Energy> (1)
-190.931254565046

>  <r_j_Final_Energy> (1)
-190.931254565046

>  <r_j_HOMO> (1)
-0.50017667940688

>  <r_j_LUMO> (1)
-0.180084438472047

>  <r_j_Polarizability> (1)
39.0523467544099

>  <r_j_QM_Dipole_(debye)> (1)
2.19861338439308

>  <r_j_QM_Dipole_X_(debye)> (1)
0.645984191539011

>  <r_j_QM_Dipole_Y_(debye)> (1)
1.18444317724774

>  <r_j_QM_Dipole_Z_(debye)> (1)
-1.7360010363434

>  <r_j_Lowest_Frequency_(cm-1)> (1)
281.004937488306

>  <r_j_Highest_Frequency_(cm-1)> (1)
3515.18628965423

>  <r_j_2nd_Lowest_Frequency_(cm-1)> (1)
329.39927663769

>  <i_j_Num_Negative_Frequencies> (1)
0

>  <r_j_Zero_Point_Energy_(kcal/mol)> (1)
78.0593452199836

>  <r_j_Entropy_(cal/mol/K)_298.15K_1.00E+00atm> (1)
69.8003787896023

>  <r_j_Enthalpy_(kcal/mol)_298.15K_1.00E+00atm> (1)
3.82050921972548

>  <r_j_Free_Energy_(kcal/mol)_298.15K_1.00E+00atm> (1)
-16.9904737163944

>  <r_j_Internal_Energy_(kcal/mol)_298.15K_1.00E+00atm> (1)
3.22802363089821

>  <r_j_Heat_Capacity_(cal/mol/K)_298.15K_1.00E+00atm> (1)
18.4763913358596

>  <r_j_ln(Q)_298.15K_1.00E+00atm> (1)
28.6766024976645

>  <r_j_Total_Internal_Energy_(au)_298.15K_1.00E+00atm> (1)
-190.801714896345

>  <r_j_Total_Enthalpy_(au)_298.15K_1.00E+00atm> (1)
-190.800770710453

>  <r_j_Total_Free_Energy_(au)_298.15K_1.00E+00atm> (1)
-190.833935122993

>  <r_epik_Ionization_Penalty> (1)
  0.1764

>  <r_epik_Ionization_Penalty_Charging> (1)
  0.1764

>  <r_epik_Ionization_Penalty_Neutral> (1)
  0.0000

>  <r_epik_State_Penalty> (1)
  0.2604

>  <r_epik_Charging_Adjusted_Penalty> (1)
0.436764

>  <i_epik_Tot_Q> (1)
1

>  <i_epik_Tot_abs_Q> (1)
1

>  <s_lp_Force_Field> (1)
S-OPLS

>  <r_lp_Energy> (1)
3.54109

>  <b_lp_Chiralities_Consistent> (1)
1

$$$$
