5993_Chlordane
                    3D
 Schrodinger Suite 2021-3.
 24 26  0  0  1  0            999 V2000
    1.3661   -0.8597   -1.6768 C   0  0  0  0  0  0
    0.4693    0.3659   -1.3996 C   0  0  0  0  0  0
    0.9445    0.9946   -0.0383 C   0  0  0  0  0  0
    2.2107    0.1900    0.3242 C   0  0  0  0  0  0
    2.0439   -1.1847   -0.3360 C   0  0  0  0  0  0
    3.6228   -2.0402   -0.5550 Cl  0  0  0  0  0  0
    2.6396    0.1118    2.0704 Cl  0  0  0  0  0  0
   -0.3523    0.9255    0.8478 C   0  0  0  0  0  0
   -0.7242   -0.5412    1.0950 C   0  0  0  0  0  0
   -1.1148   -1.0579   -0.0823 C   0  0  0  0  0  0
   -1.0355    0.0539   -1.1305 C   0  0  0  0  0  0
   -1.4522    1.2686   -0.2348 C   0  0  0  0  0  0
   -3.1320    1.1936    0.3810 Cl  0  0  0  0  0  0
   -1.2350    2.8681   -1.0291 Cl  0  0  0  0  0  0
   -1.9788   -0.2064   -2.6146 Cl  0  0  0  0  0  0
   -1.5207   -2.6885   -0.4298 Cl  0  0  0  0  0  0
   -0.6040   -1.3524    2.5977 Cl  0  0  0  0  0  0
   -0.3378    1.9915    2.2662 Cl  0  0  0  0  0  0
    2.1336   -0.5904   -2.4066 H   0  0  0  0  0  0
    0.8155   -1.7126   -2.0784 H   0  0  0  0  0  0
    0.5234    1.0909   -2.2116 H   0  0  0  0  0  0
    1.2000    2.0487   -0.1416 H   0  0  0  0  0  0
    3.0549    0.6915   -0.1555 H   0  0  0  0  0  0
    1.4417   -1.8445    0.2865 H   0  0  0  0  0  0
  1  5  1  0  0  0
  1  2  1  0  0  0
  1 19  1  0  0  0
  1 20  1  0  0  0
  2 11  1  0  0  0
  2  3  1  0  0  0
  2 21  1  0  0  0
  3  4  1  0  0  0
  3  8  1  0  0  0
  3 22  1  0  0  0
  4  5  1  0  0  0
  4  7  1  0  0  0
  4 23  1  0  0  0
  5  6  1  0  0  0
  5 24  1  0  0  0
  8 12  1  0  0  0
  8  9  1  0  0  0
  8 18  1  0  0  0
  9 10  2  0  0  0
  9 17  1  0  0  0
 10 11  1  0  0  0
 10 16  1  0  0  0
 11 12  1  0  0  0
 11 15  1  0  0  0
 12 13  1  0  0  0
 12 14  1  0  0  0
M  END
>  <i_m_Spin_multiplicity> (1)
1

>  <s_j_Task> (1)
Single Point

>  <s_j_QM_Method> (1)
DFT(b3lyp-d3)

>  <s_j_QM_Basis> (1)
cc-pvtz(-f)

>  <i_j_Number_of_canonical_orbitals> (1)
494

>  <i_j_Geometry_convergence_category> (1)
0

>  <r_j_Gas_Phase_Energy> (1)
-4066.63635668553

>  <r_j_Final_Energy> (1)
-4066.63635668553

>  <r_j_HOMO> (1)
-0.279010903686391

>  <r_j_LUMO> (1)
-0.0633252837641719

>  <r_j_Polarizability> (1)
196.487496559341

>  <r_j_QM_Dipole_(debye)> (1)
1.95668641073258

>  <r_j_QM_Dipole_X_(debye)> (1)
0.308238591296618

>  <r_j_QM_Dipole_Y_(debye)> (1)
0.432196921295367

>  <r_j_QM_Dipole_Z_(debye)> (1)
-1.88329936600739

>  <r_j_Lowest_Frequency_(cm-1)> (1)
60.933956084471

>  <r_j_Highest_Frequency_(cm-1)> (1)
3098.05655674218

>  <r_j_2nd_Lowest_Frequency_(cm-1)> (1)
74.261567031287

>  <i_j_Num_Negative_Frequencies> (1)
0

>  <r_j_Zero_Point_Energy_(kcal/mol)> (1)
87.9355689659735

>  <r_j_Entropy_(cal/mol/K)_298.15K_1.00E+00atm> (1)
133.200652618411

>  <r_j_Enthalpy_(kcal/mol)_298.15K_1.00E+00atm> (1)
11.3909749133957

>  <r_j_Free_Energy_(kcal/mol)_298.15K_1.00E+00atm> (1)
-28.3227996647836

>  <r_j_Internal_Energy_(kcal/mol)_298.15K_1.00E+00atm> (1)
10.7984893245684

>  <r_j_Heat_Capacity_(cal/mol/K)_298.15K_1.00E+00atm> (1)
63.2189484030774

>  <r_j_ln(Q)_298.15K_1.00E+00atm> (1)
47.8033562315732

>  <r_j_Total_Internal_Energy_(au)_298.15K_1.00E+00atm> (1)
-4066.47901394727

>  <r_j_Total_Enthalpy_(au)_298.15K_1.00E+00atm> (1)
-4066.47806976138

>  <r_j_Total_Free_Energy_(au)_298.15K_1.00E+00atm> (1)
-4066.54135769005

>  <r_lp_tautomer_probability> (1)
1

>  <r_epik_Ionization_Penalty> (1)
  0.0000

>  <r_epik_Ionization_Penalty_Charging> (1)
  0.0000

>  <r_epik_Ionization_Penalty_Neutral> (1)
  0.0000

>  <r_epik_State_Penalty> (1)
  0.0000

>  <r_epik_Charging_Adjusted_Penalty> (1)
0

>  <i_epik_Tot_Q> (1)
0

>  <i_epik_Tot_abs_Q> (1)
0

>  <s_lp_Force_Field> (1)
S-OPLS

>  <r_lp_Energy> (1)
43.610387

>  <b_lp_Chiralities_Consistent> (1)
1

$$$$
