5997_Cholesterol
                    3D
 Schrodinger Suite 2021-3.
 74 77  0  0  1  0            999 V2000
   -2.6440    3.6730    1.1704 C   0  0  0  0  0  0
   -3.1109    2.5566    0.2247 C   0  0  0  0  0  0
   -4.5775    2.1967    0.5008 C   0  0  0  0  0  0
   -2.2208    1.3025    0.3133 C   0  0  0  0  0  0
   -0.7511    1.5266   -0.0657 C   0  0  0  0  0  0
    0.0395    0.2147   -0.1671 C   0  0  0  0  0  0
    1.5610    0.3851   -0.3798 C   0  0  0  0  0  0
    1.8605    1.1712   -1.6666 C   0  0  0  0  0  0
    2.2665   -0.9992   -0.2841 C   0  0  0  0  0  0
    1.9790   -1.9279   -1.4940 C   0  0  0  0  0  0
    3.2217   -1.8599   -2.4153 C   0  0  0  0  0  0
    4.3203   -1.0705   -1.6509 C   0  0  0  0  0  0
    3.8322   -1.0079   -0.1666 C   0  0  0  0  0  0
    4.2543   -2.3061    0.5740 C   0  0  0  0  0  0
    5.7202   -2.7184    0.3679 C   0  0  0  0  0  0
    6.0039   -2.9494   -1.1302 C   0  0  0  0  0  0
    5.7399   -1.6317   -1.8942 C   0  0  0  0  0  0
    6.8411   -0.5972   -1.5970 C   0  0  0  0  0  0
    8.2134   -1.1911   -1.7258 C   0  0  0  0  0  0
    8.4802   -2.5052   -1.6712 C   0  0  0  0  0  0
    7.3982   -3.5697   -1.4875 C   0  0  0  0  0  0
    7.2935   -4.3257   -2.8524 C   0  0  0  0  0  0
    8.6465   -4.8223   -3.3952 C   0  0  0  0  0  0
    9.7072   -3.7082   -3.4460 C   0  0  0  0  0  0
    9.8438   -3.0293   -2.0602 C   0  0  0  0  0  0
    9.3951   -2.7410   -4.4452 O   0  0  0  0  0  0
    7.8170   -4.5839   -0.3976 C   0  0  0  0  0  0
    4.3626    0.1981    0.6281 C   0  0  0  0  0  0
   -2.6502    3.3251    2.2111 H   0  0  0  0  0  0
   -3.3068    4.5430    1.1073 H   0  0  0  0  0  0
   -1.6302    4.0123    0.9376 H   0  0  0  0  0  0
   -3.0441    2.9370   -0.8063 H   0  0  0  0  0  0
   -4.6977    1.8135    1.5219 H   0  0  0  0  0  0
   -4.9368    1.4245   -0.1885 H   0  0  0  0  0  0
   -5.2291    3.0710    0.3959 H   0  0  0  0  0  0
   -2.2786    0.8925    1.3327 H   0  0  0  0  0  0
   -2.6406    0.5301   -0.3468 H   0  0  0  0  0  0
   -0.7149    2.0629   -1.0226 H   0  0  0  0  0  0
   -0.2674    2.1814    0.6711 H   0  0  0  0  0  0
   -0.1204   -0.3619    0.7550 H   0  0  0  0  0  0
   -0.3857   -0.3921   -0.9783 H   0  0  0  0  0  0
    1.9188    0.9905    0.4639 H   0  0  0  0  0  0
    1.5261    0.6269   -2.5568 H   0  0  0  0  0  0
    2.9269    1.3732   -1.7808 H   0  0  0  0  0  0
    1.3529    2.1396   -1.6638 H   0  0  0  0  0  0
    1.8705   -1.4563    0.6335 H   0  0  0  0  0  0
    1.8210   -2.9541   -1.1482 H   0  0  0  0  0  0
    1.0629   -1.6463   -2.0202 H   0  0  0  0  0  0
    3.5692   -2.8662   -2.6726 H   0  0  0  0  0  0
    2.9952   -1.3642   -3.3649 H   0  0  0  0  0  0
    4.3269   -0.0463   -2.0393 H   0  0  0  0  0  0
    4.0433   -2.1858    1.6445 H   0  0  0  0  0  0
    3.6281   -3.1411    0.2355 H   0  0  0  0  0  0
    6.4055   -1.9661    0.7772 H   0  0  0  0  0  0
    5.8955   -3.6305    0.9439 H   0  0  0  0  0  0
    5.2610   -3.6888   -1.4651 H   0  0  0  0  0  0
    5.8098   -1.8461   -2.9698 H   0  0  0  0  0  0
    6.7398    0.2464   -2.2928 H   0  0  0  0  0  0
    6.7186   -0.1578   -0.6012 H   0  0  0  0  0  0
    9.0386   -0.4991   -1.8937 H   0  0  0  0  0  0
    6.6037   -5.1722   -2.7435 H   0  0  0  0  0  0
    6.8481   -3.6525   -3.5940 H   0  0  0  0  0  0
    9.0268   -5.6460   -2.7783 H   0  0  0  0  0  0
    8.5137   -5.2209   -4.4064 H   0  0  0  0  0  0
   10.6722   -4.1351   -3.7425 H   0  0  0  0  0  0
   10.5697   -2.2133   -2.1356 H   0  0  0  0  0  0
   10.2327   -3.7542   -1.3364 H   0  0  0  0  0  0
    8.7496   -2.1334   -4.0524 H   0  0  0  0  0  0
    7.0054   -5.2965   -0.2144 H   0  0  0  0  0  0
    8.0560   -4.0861    0.5456 H   0  0  0  0  0  0
    8.6936   -5.1640   -0.6907 H   0  0  0  0  0  0
    5.4150    0.0792    0.8966 H   0  0  0  0  0  0
    3.8087    0.3059    1.5679 H   0  0  0  0  0  0
    4.2698    1.1369    0.0746 H   0  0  0  0  0  0
  1  2  1  0  0  0
  1 29  1  0  0  0
  1 30  1  0  0  0
  1 31  1  0  0  0
  2  3  1  0  0  0
  2  4  1  0  0  0
  2 32  1  0  0  0
  3 33  1  0  0  0
  3 34  1  0  0  0
  3 35  1  0  0  0
  4  5  1  0  0  0
  4 36  1  0  0  0
  4 37  1  0  0  0
  5  6  1  0  0  0
  5 38  1  0  0  0
  5 39  1  0  0  0
  6  7  1  0  0  0
  6 40  1  0  0  0
  6 41  1  0  0  0
  7  8  1  0  0  0
  7  9  1  0  0  0
  7 42  1  0  0  0
  8 43  1  0  0  0
  8 44  1  0  0  0
  8 45  1  0  0  0
  9 13  1  0  0  0
  9 10  1  0  0  0
  9 46  1  0  0  0
 10 11  1  0  0  0
 10 47  1  0  0  0
 10 48  1  0  0  0
 11 12  1  0  0  0
 11 49  1  0  0  0
 11 50  1  0  0  0
 12 17  1  0  0  0
 12 13  1  0  0  0
 12 51  1  0  0  0
 13 14  1  0  0  0
 13 28  1  0  0  0
 14 15  1  0  0  0
 14 52  1  0  0  0
 14 53  1  0  0  0
 15 16  1  0  0  0
 15 54  1  0  0  0
 15 55  1  0  0  0
 16 21  1  0  0  0
 16 17  1  0  0  0
 16 56  1  0  0  0
 17 18  1  0  0  0
 17 57  1  0  0  0
 18 19  1  0  0  0
 18 58  1  0  0  0
 18 59  1  0  0  0
 19 20  2  0  0  0
 19 60  1  0  0  0
 20 25  1  0  0  0
 20 21  1  0  0  0
 21 22  1  0  0  0
 21 27  1  0  0  0
 22 23  1  0  0  0
 22 61  1  0  0  0
 22 62  1  0  0  0
 23 24  1  0  0  0
 23 63  1  0  0  0
 23 64  1  0  0  0
 24 25  1  0  0  0
 24 26  1  0  0  0
 24 65  1  0  0  0
 25 66  1  0  0  0
 25 67  1  0  0  0
 26 68  1  0  0  0
 27 69  1  0  0  0
 27 70  1  0  0  0
 27 71  1  0  0  0
 28 72  1  0  0  0
 28 73  1  0  0  0
 28 74  1  0  0  0
M  END
>  <i_m_Spin_multiplicity> (1)
1

>  <s_j_Task> (1)
Single Point

>  <s_j_QM_Method> (1)
DFT(b3lyp-d3)

>  <s_j_QM_Basis> (1)
cc-pvtz(-f)

>  <i_j_Number_of_canonical_orbitals> (1)
1040

>  <i_j_Geometry_convergence_category> (1)
1

>  <r_j_Gas_Phase_Energy> (1)
-1132.26608018962

>  <r_j_Final_Energy> (1)
-1132.26608018962

>  <r_j_HOMO> (1)
-0.242435652710478

>  <r_j_LUMO> (1)
0.00371384161769269

>  <r_j_Polarizability> (1)
309.91759150995

>  <r_j_QM_Dipole_(debye)> (1)
1.97758770078054

>  <r_j_QM_Dipole_X_(debye)> (1)
-1.06319252052949

>  <r_j_QM_Dipole_Y_(debye)> (1)
-0.166409099188362

>  <r_j_QM_Dipole_Z_(debye)> (1)
1.65915122586097

>  <r_j_Lowest_Frequency_(cm-1)> (1)
37.4422558361451

>  <r_j_Highest_Frequency_(cm-1)> (1)
3689.84355689676

>  <r_j_2nd_Lowest_Frequency_(cm-1)> (1)
41.6466580632258

>  <i_j_Num_Negative_Frequencies> (1)
0

>  <r_j_Zero_Point_Energy_(kcal/mol)> (1)
429.8554423704

>  <r_j_Entropy_(cal/mol/K)_298.15K_1.00E+00atm> (1)
167.646656534128

>  <r_j_Enthalpy_(kcal/mol)_298.15K_1.00E+00atm> (1)
17.5150919574125

>  <r_j_Free_Energy_(kcal/mol)_298.15K_1.00E+00atm> (1)
-32.4687586882378

>  <r_j_Internal_Energy_(kcal/mol)_298.15K_1.00E+00atm> (1)
16.9226063685853

>  <r_j_Heat_Capacity_(cal/mol/K)_298.15K_1.00E+00atm> (1)
115.704974510898

>  <r_j_ln(Q)_298.15K_1.00E+00atm> (1)
54.8009256267385

>  <r_j_Total_Internal_Energy_(au)_298.15K_1.00E+00atm> (1)
-1131.55409404424

>  <r_j_Total_Enthalpy_(au)_298.15K_1.00E+00atm> (1)
-1131.55314985834

>  <r_j_Total_Free_Energy_(au)_298.15K_1.00E+00atm> (1)
-1131.63280419511

>  <r_lp_tautomer_probability> (1)
1

>  <r_epik_Ionization_Penalty> (1)
  0.0000

>  <r_epik_Ionization_Penalty_Charging> (1)
  0.0000

>  <r_epik_Ionization_Penalty_Neutral> (1)
  0.0000

>  <r_epik_State_Penalty> (1)
  0.0000

>  <r_epik_Charging_Adjusted_Penalty> (1)
0

>  <i_epik_Tot_Q> (1)
0

>  <i_epik_Tot_abs_Q> (1)
0

>  <s_lp_Force_Field> (1)
S-OPLS

>  <r_lp_Energy> (1)
43.86922

>  <b_lp_Chiralities_Consistent> (1)
1

$$$$
