6001_7,12-Dimethylbenz(a)anthracene
                    3D
 Schrodinger Suite 2021-3.
 36 39  0  0  1  0            999 V2000
   -0.0380   -0.0110    0.1320 C   0  0  0  0  0  0
    1.4738    0.0228    0.0497 C   0  0  0  0  0  0
    2.1963    1.2171   -0.0853 C   0  0  0  0  0  0
    1.5246    2.4774   -0.3205 C   0  0  0  0  0  0
    2.1949    3.6452   -0.4531 C   0  0  0  0  0  0
    3.6107    3.7155   -0.2150 C   0  0  0  0  0  0
    4.2613    4.9634   -0.1395 C   0  0  0  0  0  0
    5.5874    5.0570    0.2461 C   0  0  0  0  0  0
    6.2766    3.8902    0.6029 C   0  0  0  0  0  0
    5.6576    2.6521    0.5080 C   0  0  0  0  0  0
    4.3310    2.5144    0.0399 C   0  0  0  0  0  0
    3.6479    1.2150   -0.0825 C   0  0  0  0  0  0
    4.3273   -0.0058   -0.2169 C   0  0  0  0  0  0
    3.6038   -1.2248   -0.0680 C   0  0  0  0  0  0
    4.2691   -2.4879   -0.0597 C   0  0  0  0  0  0
    3.5847   -3.6649    0.1185 C   0  0  0  0  0  0
    2.1810   -3.6489    0.2884 C   0  0  0  0  0  0
    1.5028   -2.4552    0.2836 C   0  0  0  0  0  0
    2.1783   -1.2094    0.1102 C   0  0  0  0  0  0
    5.7846   -0.0984   -0.6273 C   0  0  0  0  0  0
   -0.4887    0.9773    0.1941 H   0  0  0  0  0  0
   -0.3608   -0.5549    1.0263 H   0  0  0  0  0  0
   -0.4762   -0.5246   -0.7321 H   0  0  0  0  0  0
    0.4494    2.4816   -0.4449 H   0  0  0  0  0  0
    1.6591    4.5646   -0.6735 H   0  0  0  0  0  0
    3.6897    5.8612   -0.3586 H   0  0  0  0  0  0
    6.0745    6.0253    0.3105 H   0  0  0  0  0  0
    7.2952    3.9509    0.9749 H   0  0  0  0  0  0
    6.1976    1.7831    0.8555 H   0  0  0  0  0  0
    5.3466   -2.5238   -0.1652 H   0  0  0  0  0  0
    4.1224   -4.6085    0.1358 H   0  0  0  0  0  0
    1.6406   -4.5811    0.4258 H   0  0  0  0  0  0
    0.4271   -2.4653    0.4124 H   0  0  0  0  0  0
    5.9075   -0.8905   -1.3710 H   0  0  0  0  0  0
    6.4582   -0.3349    0.2060 H   0  0  0  0  0  0
    6.1313    0.8268   -1.0853 H   0  0  0  0  0  0
  1  2  1  0  0  0
  1 21  1  0  0  0
  1 22  1  0  0  0
  1 23  1  0  0  0
  2 19  1  0  0  0
  2  3  2  0  0  0
  3 12  1  0  0  0
  3  4  1  0  0  0
  4  5  2  0  0  0
  4 24  1  0  0  0
  5  6  1  0  0  0
  5 25  1  0  0  0
  6 11  1  0  0  0
  6  7  2  0  0  0
  7  8  1  0  0  0
  7 26  1  0  0  0
  8  9  2  0  0  0
  8 27  1  0  0  0
  9 10  1  0  0  0
  9 28  1  0  0  0
 10 11  2  0  0  0
 10 29  1  0  0  0
 11 12  1  0  0  0
 12 13  2  0  0  0
 13 14  1  0  0  0
 13 20  1  0  0  0
 14 19  1  0  0  0
 14 15  2  0  0  0
 15 16  1  0  0  0
 15 30  1  0  0  0
 16 17  2  0  0  0
 16 31  1  0  0  0
 17 18  1  0  0  0
 17 32  1  0  0  0
 18 19  2  0  0  0
 18 33  1  0  0  0
 20 34  1  0  0  0
 20 35  1  0  0  0
 20 36  1  0  0  0
M  END
>  <i_m_Spin_multiplicity> (1)
1

>  <s_j_Task> (1)
Single Point

>  <s_j_QM_Method> (1)
DFT(b3lyp-d3)

>  <s_j_QM_Basis> (1)
cc-pvtz(-f)

>  <i_j_Number_of_canonical_orbitals> (1)
586

>  <i_j_Geometry_convergence_category> (1)
1

>  <r_j_Gas_Phase_Energy> (1)
-772.049894228477

>  <r_j_Final_Energy> (1)
-772.049894228477

>  <r_j_HOMO> (1)
-0.194011582703701

>  <r_j_LUMO> (1)
-0.0659326735916121

>  <r_j_Polarizability> (1)
254.154566005022

>  <r_j_QM_Dipole_(debye)> (1)
0.17350855279663

>  <r_j_QM_Dipole_X_(debye)> (1)
-0.112895637171386

>  <r_j_QM_Dipole_Y_(debye)> (1)
-0.130634621669473

>  <r_j_QM_Dipole_Z_(debye)> (1)
0.0171577569198691

>  <r_j_Lowest_Frequency_(cm-1)> (1)
73.8389162203853

>  <r_j_Highest_Frequency_(cm-1)> (1)
3191.90771484384

>  <r_j_2nd_Lowest_Frequency_(cm-1)> (1)
86.2595016364402

>  <i_j_Num_Negative_Frequencies> (1)
0

>  <r_j_Zero_Point_Energy_(kcal/mol)> (1)
185.751380953999

>  <r_j_Entropy_(cal/mol/K)_298.15K_1.00E+00atm> (1)
116.688072667214

>  <r_j_Enthalpy_(kcal/mol)_298.15K_1.00E+00atm> (1)
9.71488161041836

>  <r_j_Free_Energy_(kcal/mol)_298.15K_1.00E+00atm> (1)
-25.0756672553115

>  <r_j_Internal_Energy_(kcal/mol)_298.15K_1.00E+00atm> (1)
9.12239602159109

>  <r_j_Heat_Capacity_(cal/mol/K)_298.15K_1.00E+00atm> (1)
62.9437531383213

>  <r_j_ln(Q)_298.15K_1.00E+00atm> (1)
42.3228306783706

>  <r_j_Total_Internal_Energy_(au)_298.15K_1.00E+00atm> (1)
-771.73934309532

>  <r_j_Total_Enthalpy_(au)_298.15K_1.00E+00atm> (1)
-771.738398909427

>  <r_j_Total_Free_Energy_(au)_298.15K_1.00E+00atm> (1)
-771.793841178475

>  <r_lp_tautomer_probability> (1)
1

>  <r_epik_Ionization_Penalty> (1)
  0.0000

>  <r_epik_Ionization_Penalty_Charging> (1)
  0.0000

>  <r_epik_Ionization_Penalty_Neutral> (1)
  0.0000

>  <r_epik_State_Penalty> (1)
  0.0000

>  <r_epik_Charging_Adjusted_Penalty> (1)
0

>  <i_epik_Tot_Q> (1)
0

>  <i_epik_Tot_abs_Q> (1)
0

>  <s_lp_Force_Field> (1)
S-OPLS

>  <r_lp_Energy> (1)
70.493

>  <b_lp_Chiralities_Consistent> (1)
1

$$$$
