6046_N-Nitrosomorpholine
                    3D
 Schrodinger Suite 2021-3.
 16 16  0  0  1  0            999 V2000
   -0.4316    1.6121   -0.2151 C   0  0  0  0  0  0
   -1.9528    1.4331   -0.1479 C   0  0  0  0  0  0
   -2.4156    0.6460   -1.2390 O   0  0  0  0  0  0
   -1.8480   -0.6603   -1.2175 C   0  0  0  0  0  0
   -0.3204   -0.6061   -1.3353 C   0  0  0  0  0  0
    0.1952    0.3039   -0.3149 N   0  0  0  0  0  0
    1.0766   -0.0398    0.6395 N   0  0  0  0  0  0
    1.5179   -1.1819    0.5681 O   0  0  0  0  0  0
   -0.0392    2.1040    0.6784 H   0  0  0  0  0  0
   -0.1722    2.2078   -1.0997 H   0  0  0  0  0  0
   -2.2242    0.9611    0.8107 H   0  0  0  0  0  0
   -2.4582    2.4002   -0.2195 H   0  0  0  0  0  0
   -2.1250   -1.1823   -0.2875 H   0  0  0  0  0  0
   -2.2784   -1.2017   -2.0643 H   0  0  0  0  0  0
    0.1415   -1.5814   -1.1712 H   0  0  0  0  0  0
   -0.0328   -0.2290   -2.3242 H   0  0  0  0  0  0
  1  6  1  0  0  0
  1  2  1  0  0  0
  1  9  1  0  0  0
  1 10  1  0  0  0
  2  3  1  0  0  0
  2 11  1  0  0  0
  2 12  1  0  0  0
  3  4  1  0  0  0
  4  5  1  0  0  0
  4 13  1  0  0  0
  4 14  1  0  0  0
  5  6  1  0  0  0
  5 15  1  0  0  0
  5 16  1  0  0  0
  6  7  1  0  0  0
  7  8  2  0  0  0
M  END
>  <i_m_Spin_multiplicity> (1)
1

>  <s_j_Task> (1)
Single Point

>  <s_j_QM_Method> (1)
DFT(b3lyp-d3)

>  <s_j_QM_Basis> (1)
cc-pvtz(-f)

>  <i_j_Number_of_canonical_orbitals> (1)
255

>  <i_j_Geometry_convergence_category> (1)
3

>  <r_j_Gas_Phase_Energy> (1)
-417.255620385756

>  <r_j_Final_Energy> (1)
-417.255620385756

>  <r_j_HOMO> (1)
-0.237527879175867

>  <r_j_LUMO> (1)
-0.0448163954620003

>  <r_j_Polarizability> (1)
69.6572978469421

>  <r_j_QM_Dipole_(debye)> (1)
2.94378587900685

>  <r_j_QM_Dipole_X_(debye)> (1)
-2.13935588680252

>  <r_j_QM_Dipole_Y_(debye)> (1)
1.49791242769667

>  <r_j_QM_Dipole_Z_(debye)> (1)
-1.35841453540346

>  <r_j_Lowest_Frequency_(cm-1)> (1)
78.4474511947729

>  <r_j_Highest_Frequency_(cm-1)> (1)
3085.75737114036

>  <r_j_2nd_Lowest_Frequency_(cm-1)> (1)
222.548198229958

>  <i_j_Num_Negative_Frequencies> (1)
0

>  <r_j_Zero_Point_Energy_(kcal/mol)> (1)
82.3174921710902

>  <r_j_Entropy_(cal/mol/K)_298.15K_1.00E+00atm> (1)
81.8135112693463

>  <r_j_Enthalpy_(kcal/mol)_298.15K_1.00E+00atm> (1)
4.87981606647046

>  <r_j_Free_Energy_(kcal/mol)_298.15K_1.00E+00atm> (1)
-19.5128823184851

>  <r_j_Internal_Energy_(kcal/mol)_298.15K_1.00E+00atm> (1)
4.28733047764319

>  <r_j_Heat_Capacity_(cal/mol/K)_298.15K_1.00E+00atm> (1)
26.0846441954501

>  <r_j_ln(Q)_298.15K_1.00E+00atm> (1)
32.9339357554799

>  <r_j_Total_Internal_Energy_(au)_298.15K_1.00E+00atm> (1)
-417.117606814983

>  <r_j_Total_Enthalpy_(au)_298.15K_1.00E+00atm> (1)
-417.116662629091

>  <r_j_Total_Free_Energy_(au)_298.15K_1.00E+00atm> (1)
-417.155534868556

>  <r_lp_tautomer_probability> (1)
1

>  <r_epik_Ionization_Penalty> (1)
  0.0000

>  <r_epik_Ionization_Penalty_Charging> (1)
  0.0000

>  <r_epik_Ionization_Penalty_Neutral> (1)
  0.0000

>  <r_epik_State_Penalty> (1)
  0.0000

>  <r_epik_Charging_Adjusted_Penalty> (1)
0

>  <i_epik_Tot_Q> (1)
0

>  <i_epik_Tot_abs_Q> (1)
0

>  <s_lp_Force_Field> (1)
S-OPLS

>  <r_lp_Energy> (1)
14.1067

>  <b_lp_Chiralities_Consistent> (1)
1

$$$$
