6049_Ethylenediaminetetraacetic acid
                    3D
 Schrodinger Suite 2021-3.
 33 32  0  0  1  0            999 V2000
   -0.2602    0.3294    0.4785 C   0  0  0  0  0  0
    1.2592    0.5287    0.5921 C   0  0  0  0  0  0
    2.0421   -0.6032    1.2432 N   0  3  1  0  0  0
    3.5065   -0.2579    1.3226 C   0  0  0  0  0  0
    3.8381    0.7865    2.4433 C   0  0  0  0  0  0
    5.0167    1.2116    2.3956 O   0  0  0  0  0  0
    2.9108    1.0286    3.2538 O   0  5  0  0  0  0
    1.8306   -1.9516    0.6152 C   0  0  0  0  0  0
    2.2849   -3.1254    1.5518 C   0  0  0  0  0  0
    2.4166   -4.2270    0.9705 O   0  0  0  0  0  0
    2.4184   -2.8210    2.7645 O   0  5  0  0  0  0
   -0.8143    1.5558   -0.0987 N   0  0  0  0  0  0
   -1.4835    1.3836   -1.3935 C   0  0  0  0  0  0
   -0.6168    0.9091   -2.6126 C   0  0  0  0  0  0
   -1.1852    1.0764   -3.7273 O   0  0  0  0  0  0
    0.5102    0.3844   -2.3945 O   0  5  0  0  0  0
   -1.5832    2.3621    0.8514 C   0  0  0  0  0  0
   -2.9794    1.8454    1.3741 C   0  0  0  0  0  0
   -3.2574    0.6335    1.1793 O   0  0  0  0  0  0
   -3.6590    2.7262    1.9726 O   0  5  0  0  0  0
   -0.4670   -0.5055   -0.1944 H   0  0  0  0  0  0
   -0.7244    0.0991    1.4466 H   0  0  0  0  0  0
    1.6301    0.6448   -0.4282 H   0  0  0  0  0  0
    1.4846    1.4068    1.1981 H   0  0  0  0  0  0
    4.0336   -1.1832    1.5604 H   0  0  0  0  0  0
    3.8186    0.1018    0.3394 H   0  0  0  0  0  0
    0.7652   -2.0643    0.4089 H   0  0  0  0  0  0
    2.3542   -1.9641   -0.3424 H   0  0  0  0  0  0
   -2.3498    0.7038   -1.3053 H   0  0  0  0  0  0
   -1.9018    2.3584   -1.6759 H   0  0  0  0  0  0
   -0.9559    2.5363    1.7403 H   0  0  0  0  0  0
   -1.7485    3.3567    0.4119 H   0  0  0  0  0  0
    1.7773   -0.6873    2.2380 H   0  0  0  0  0  0
  1  2  1  0  0  0
  1 12  1  0  0  0
  1 21  1  0  0  0
  1 22  1  0  0  0
  2  3  1  0  0  0
  2 23  1  0  0  0
  2 24  1  0  0  0
  3  4  1  0  0  0
  3  8  1  0  0  0
  3 33  1  0  0  0
  4  5  1  0  0  0
  4 25  1  0  0  0
  4 26  1  0  0  0
  5  6  2  0  0  0
  5  7  1  0  0  0
  8  9  1  0  0  0
  8 27  1  0  0  0
  8 28  1  0  0  0
  9 10  2  0  0  0
  9 11  1  0  0  0
 12 13  1  0  0  0
 12 17  1  0  0  0
 13 14  1  0  0  0
 13 29  1  0  0  0
 13 30  1  0  0  0
 14 15  2  0  0  0
 14 16  1  0  0  0
 17 18  1  0  0  0
 17 31  1  0  0  0
 17 32  1  0  0  0
 18 19  2  0  0  0
 18 20  1  0  0  0
M  END
>  <i_m_Spin_multiplicity> (1)
1

>  <s_j_Task> (1)
Single Point

>  <s_j_QM_Method> (1)
DFT(b3lyp-d3)

>  <s_j_QM_Basis> (1)
cc-pvtz(-f)

>  <i_j_Number_of_canonical_orbitals> (1)
576

>  <i_j_Geometry_convergence_category> (1)
0

>  <r_j_Gas_Phase_Energy> (1)
-1100.57384395359

>  <r_j_Final_Energy> (1)
-1100.57384395359

>  <r_j_HOMO> (1)
0.145678200581787

>  <r_j_LUMO> (1)
0.329438912678873

>  <r_j_Polarizability> (1)
167.295733893236

>  <r_j_QM_Dipole_(debye)> (1)
4.36654696757773

>  <r_j_QM_Dipole_X_(debye)> (1)
4.32723460781091

>  <r_j_QM_Dipole_Y_(debye)> (1)
-0.45887619938775

>  <r_j_QM_Dipole_Z_(debye)> (1)
-0.362223277359816

>  <r_j_Lowest_Frequency_(cm-1)> (1)
29.3091370671577

>  <r_j_Highest_Frequency_(cm-1)> (1)
3288.68814144974

>  <r_j_2nd_Lowest_Frequency_(cm-1)> (1)
44.0855185664254

>  <i_j_Num_Negative_Frequencies> (1)
0

>  <r_j_Zero_Point_Energy_(kcal/mol)> (1)
153.760956756987

>  <r_j_Entropy_(cal/mol/K)_298.15K_1.00E+00atm> (1)
141.992077457177

>  <r_j_Enthalpy_(kcal/mol)_298.15K_1.00E+00atm> (1)
12.5744949201037

>  <r_j_Free_Energy_(kcal/mol)_298.15K_1.00E+00atm> (1)
-29.7604429737535

>  <r_j_Internal_Energy_(kcal/mol)_298.15K_1.00E+00atm> (1)
11.9820093312764

>  <r_j_Heat_Capacity_(cal/mol/K)_298.15K_1.00E+00atm> (1)
69.9553128214417

>  <r_j_ln(Q)_298.15K_1.00E+00atm> (1)
50.2298174587829

>  <r_j_Total_Internal_Energy_(au)_298.15K_1.00E+00atm> (1)
-1100.30971572285

>  <r_j_Total_Enthalpy_(au)_298.15K_1.00E+00atm> (1)
-1100.30877153695

>  <r_j_Total_Free_Energy_(au)_298.15K_1.00E+00atm> (1)
-1100.37623655528

>  <r_epik_Ionization_Penalty> (1)
  0.0188

>  <r_epik_Ionization_Penalty_Charging> (1)
  0.0188

>  <r_epik_Ionization_Penalty_Neutral> (1)
  0.0000

>  <r_epik_State_Penalty> (1)
  0.0143

>  <r_epik_Charging_Adjusted_Penalty> (1)
0.033028085583068

>  <i_epik_Tot_Q> (1)
-3

>  <i_epik_Tot_abs_Q> (1)
5

>  <s_lp_Force_Field> (1)
S-OPLS

>  <r_lp_Energy> (1)
52.868359

>  <b_lp_Chiralities_Consistent> (1)
1

$$$$
