607552_Methyl deisopropyldehydroabietate
                    3D
 Schrodinger Suite 2021-3.
 44 46  0  0  1  0            999 V2000
    1.4199   -0.1506    2.8625 C   0  0  0  0  0  0
   -0.1104   -0.1227    2.6185 C   0  0  0  0  0  0
   -0.6215    1.3487    2.6053 C   0  0  0  0  0  0
   -0.1397    2.1619    1.3988 C   0  0  0  0  0  0
   -0.5110    1.4707    0.0834 C   0  0  0  0  0  0
    0.0064    0.0197   -0.0023 C   0  0  0  0  0  0
   -0.4387   -0.8212    1.2485 C   0  0  0  0  0  0
   -1.9196   -1.2355    1.1928 C   0  0  0  0  0  0
   -2.1900   -2.3048    2.2485 C   0  0  0  0  0  0
   -1.7597   -1.8581    3.6263 C   0  0  0  0  0  0
   -2.3437   -2.4608    4.7495 C   0  0  0  0  0  0
   -2.0101   -2.0713    6.0409 C   0  0  0  0  0  0
   -1.0809   -1.0464    6.2203 C   0  0  0  0  0  0
   -0.4939   -0.4478    5.1112 C   0  0  0  0  0  0
   -0.8004   -0.8444    3.7974 C   0  0  0  0  0  0
   -0.4854   -0.6218   -1.3267 C   0  0  0  0  0  0
    1.5334    0.0321   -0.1567 C   0  0  0  0  0  0
    2.2172    1.0096   -0.3821 O   0  0  0  0  0  0
    2.0520   -1.2171   -0.0895 O   0  0  0  0  0  0
    3.4778   -1.2994   -0.2452 C   0  0  0  0  0  0
    1.9701    0.4166    2.1112 H   0  0  0  0  0  0
    1.7912   -1.1795    2.8541 H   0  0  0  0  0  0
    1.6768    0.2906    3.8278 H   0  0  0  0  0  0
   -1.7186    1.3377    2.6170 H   0  0  0  0  0  0
   -0.3173    1.8390    3.5369 H   0  0  0  0  0  0
   -0.5899    3.1611    1.4298 H   0  0  0  0  0  0
    0.9437    2.3099    1.4348 H   0  0  0  0  0  0
   -1.6038    1.4424   -0.0153 H   0  0  0  0  0  0
   -0.1244    2.0394   -0.7676 H   0  0  0  0  0  0
    0.1384   -1.7527    1.2144 H   0  0  0  0  0  0
   -2.5734   -0.3723    1.3624 H   0  0  0  0  0  0
   -2.1769   -1.6395    0.2115 H   0  0  0  0  0  0
   -3.2534   -2.5714    2.2632 H   0  0  0  0  0  0
   -1.6506   -3.2228    1.9722 H   0  0  0  0  0  0
   -3.0819   -3.2449    4.5960 H   0  0  0  0  0  0
   -2.4763   -2.5511    6.8967 H   0  0  0  0  0  0
   -0.8157   -0.7118    7.2192 H   0  0  0  0  0  0
    0.2190    0.3535    5.2764 H   0  0  0  0  0  0
   -1.5642   -0.4981   -1.4459 H   0  0  0  0  0  0
   -0.2440   -1.6874   -1.3644 H   0  0  0  0  0  0
   -0.0058   -0.1318   -2.1804 H   0  0  0  0  0  0
    3.7205   -2.3604   -0.1852 H   0  0  0  0  0  0
    3.9808   -0.7457    0.5525 H   0  0  0  0  0  0
    3.7866   -0.8851   -1.2081 H   0  0  0  0  0  0
  1  2  1  0  0  0
  1 21  1  0  0  0
  1 22  1  0  0  0
  1 23  1  0  0  0
  2  7  1  0  0  0
  2 15  1  0  0  0
  2  3  1  0  0  0
  3  4  1  0  0  0
  3 24  1  0  0  0
  3 25  1  0  0  0
  4  5  1  0  0  0
  4 26  1  0  0  0
  4 27  1  0  0  0
  5  6  1  0  0  0
  5 28  1  0  0  0
  5 29  1  0  0  0
  6  7  1  0  0  0
  6 16  1  0  0  0
  6 17  1  0  0  0
  7  8  1  0  0  0
  7 30  1  0  0  0
  8  9  1  0  0  0
  8 31  1  0  0  0
  8 32  1  0  0  0
  9 10  1  0  0  0
  9 33  1  0  0  0
  9 34  1  0  0  0
 10 15  1  0  0  0
 10 11  2  0  0  0
 11 12  1  0  0  0
 11 35  1  0  0  0
 12 13  2  0  0  0
 12 36  1  0  0  0
 13 14  1  0  0  0
 13 37  1  0  0  0
 14 15  2  0  0  0
 14 38  1  0  0  0
 16 39  1  0  0  0
 16 40  1  0  0  0
 16 41  1  0  0  0
 17 18  2  0  0  0
 17 19  1  0  0  0
 19 20  1  0  0  0
 20 42  1  0  0  0
 20 43  1  0  0  0
 20 44  1  0  0  0
M  END
>  <i_m_Spin_multiplicity> (1)
1

>  <s_j_Task> (1)
Single Point

>  <s_j_QM_Method> (1)
DFT(b3lyp-d3)

>  <s_j_QM_Basis> (1)
cc-pvtz(-f)

>  <i_j_Number_of_canonical_orbitals> (1)
663

>  <i_j_Geometry_convergence_category> (1)
3

>  <r_j_Gas_Phase_Energy> (1)
-851.166916569716

>  <r_j_Final_Energy> (1)
-851.166916569716

>  <r_j_HOMO> (1)
-0.266395534962136

>  <r_j_LUMO> (1)
-0.0407341772353682

>  <r_j_Polarizability> (1)
202.808494594079

>  <r_j_QM_Dipole_(debye)> (1)
1.56582008551579

>  <r_j_QM_Dipole_X_(debye)> (1)
-0.303484902224486

>  <r_j_QM_Dipole_Y_(debye)> (1)
-1.48527714379914

>  <r_j_QM_Dipole_Z_(debye)> (1)
-0.391970994378812

>  <r_j_Lowest_Frequency_(cm-1)> (1)
68.0739261065468

>  <r_j_Highest_Frequency_(cm-1)> (1)
3145.87761576118

>  <r_j_2nd_Lowest_Frequency_(cm-1)> (1)
88.9087745371618

>  <i_j_Num_Negative_Frequencies> (1)
0

>  <r_j_Zero_Point_Energy_(kcal/mol)> (1)
242.033040578638

>  <r_j_Entropy_(cal/mol/K)_298.15K_1.00E+00atm> (1)
127.295041327292

>  <r_j_Enthalpy_(kcal/mol)_298.15K_1.00E+00atm> (1)
11.4406801037544

>  <r_j_Free_Energy_(kcal/mol)_298.15K_1.00E+00atm> (1)
-26.5123364679779

>  <r_j_Internal_Energy_(kcal/mol)_298.15K_1.00E+00atm> (1)
10.8481945149271

>  <r_j_Heat_Capacity_(cal/mol/K)_298.15K_1.00E+00atm> (1)
73.1773485994133

>  <r_j_ln(Q)_298.15K_1.00E+00atm> (1)
44.7476478211978

>  <r_j_Total_Internal_Energy_(au)_298.15K_1.00E+00atm> (1)
-850.76392466731

>  <r_j_Total_Enthalpy_(au)_298.15K_1.00E+00atm> (1)
-850.762980481417

>  <r_j_Total_Free_Energy_(au)_298.15K_1.00E+00atm> (1)
-850.82346246358

>  <r_lp_tautomer_probability> (1)
1

>  <r_epik_Ionization_Penalty> (1)
  0.0000

>  <r_epik_Ionization_Penalty_Charging> (1)
  0.0000

>  <r_epik_Ionization_Penalty_Neutral> (1)
  0.0000

>  <r_epik_State_Penalty> (1)
  0.0000

>  <r_epik_Charging_Adjusted_Penalty> (1)
0

>  <i_epik_Tot_Q> (1)
0

>  <i_epik_Tot_abs_Q> (1)
0

>  <s_lp_Force_Field> (1)
S-OPLS

>  <r_lp_Energy> (1)
45.4599

>  <b_lp_Chiralities_Consistent> (1)
1

>  <s_epik_Chemistry_Notes> (1)
This compound has an ester and may undergo hydrolysis at high or low pH.

$$$$
