61112_3,3-dichloro-1,1,1,2,2-pentafluoropropane
                    3D
 Schrodinger Suite 2021-3.
 11 10  0  0  1  0            999 V2000
   -0.0538   -0.0364   -0.0416 C   0  0  0  0  0  0
    1.4867    0.0667   -0.0388 C   0  0  0  0  0  0
    2.0851    0.7328    1.2335 C   0  0  0  0  0  0
    3.3875    0.4413    1.3193 F   0  0  0  0  0  0
    1.9470    2.0610    1.2064 F   0  0  0  0  0  0
    1.4609    0.2502    2.3268 F   0  0  0  0  0  0
    1.9745   -1.2015   -0.0667 F   0  0  0  0  0  0
    1.9402    0.7379   -1.1178 F   0  0  0  0  0  0
   -0.5930   -0.9765   -1.4680 Cl  0  0  0  0  0  0
   -0.8295    1.5744    0.0124 Cl  0  0  0  0  0  0
   -0.3607   -0.5821    0.8487 H   0  0  0  0  0  0
  1  2  1  0  0  0
  1  9  1  0  0  0
  1 10  1  0  0  0
  1 11  1  0  0  0
  2  3  1  0  0  0
  2  7  1  0  0  0
  2  8  1  0  0  0
  3  4  1  0  0  0
  3  5  1  0  0  0
  3  6  1  0  0  0
M  END
>  <i_m_Spin_multiplicity> (1)
1

>  <s_j_Task> (1)
Single Point

>  <s_j_QM_Method> (1)
DFT(b3lyp-d3)

>  <s_j_QM_Basis> (1)
cc-pvtz(-f)

>  <i_j_Number_of_canonical_orbitals> (1)
247

>  <i_j_Geometry_convergence_category> (1)
3

>  <r_j_Gas_Phase_Energy> (1)
-1534.82083986776

>  <r_j_Final_Energy> (1)
-1534.82083986776

>  <r_j_HOMO> (1)
-0.326668907866257

>  <r_j_LUMO> (1)
-0.0377410505721615

>  <r_j_Polarizability> (1)
60.8956919346255

>  <r_j_QM_Dipole_(debye)> (1)
1.19736507664989

>  <r_j_QM_Dipole_X_(debye)> (1)
-0.80103116803947

>  <r_j_QM_Dipole_Y_(debye)> (1)
-0.407827500253708

>  <r_j_QM_Dipole_Z_(debye)> (1)
0.791017651286576

>  <r_j_Lowest_Frequency_(cm-1)> (1)
54.2095493008748

>  <r_j_Highest_Frequency_(cm-1)> (1)
3104.64538587121

>  <r_j_2nd_Lowest_Frequency_(cm-1)> (1)
80.4635405378956

>  <i_j_Num_Negative_Frequencies> (1)
0

>  <r_j_Zero_Point_Energy_(kcal/mol)> (1)
28.9340979397112

>  <r_j_Entropy_(cal/mol/K)_298.15K_1.00E+00atm> (1)
96.6546910699681

>  <r_j_Enthalpy_(kcal/mol)_298.15K_1.00E+00atm> (1)
6.49986928055296

>  <r_j_Free_Energy_(kcal/mol)_298.15K_1.00E+00atm> (1)
-22.317726861958

>  <r_j_Internal_Energy_(kcal/mol)_298.15K_1.00E+00atm> (1)
5.90738369172568

>  <r_j_Heat_Capacity_(cal/mol/K)_298.15K_1.00E+00atm> (1)
32.937838801742

>  <r_j_ln(Q)_298.15K_1.00E+00atm> (1)
37.6679657409596

>  <r_j_Total_Internal_Energy_(au)_298.15K_1.00E+00atm> (1)
-1534.76531643218

>  <r_j_Total_Enthalpy_(au)_298.15K_1.00E+00atm> (1)
-1534.76437224629

>  <r_j_Total_Free_Energy_(au)_298.15K_1.00E+00atm> (1)
-1534.81029600923

>  <r_lp_tautomer_probability> (1)
1

>  <r_epik_Ionization_Penalty> (1)
  0.0000

>  <r_epik_Ionization_Penalty_Charging> (1)
  0.0000

>  <r_epik_Ionization_Penalty_Neutral> (1)
  0.0000

>  <r_epik_State_Penalty> (1)
  0.0000

>  <r_epik_Charging_Adjusted_Penalty> (1)
0

>  <i_epik_Tot_Q> (1)
0

>  <i_epik_Tot_abs_Q> (1)
0

>  <s_lp_Force_Field> (1)
S-OPLS

>  <r_lp_Energy> (1)
-11.7104

>  <b_lp_Chiralities_Consistent> (1)
1

$$$$
