61222_1,5-Hexadien-3-yne
                    3D
 Schrodinger Suite 2021-3.
 12 11  0  0  1  0            999 V2000
   -0.6899    1.1121    0.0606 C   0  0  0  0  0  0
    0.0843    0.0236   -0.0832 C   0  0  0  0  0  0
    1.5025    0.0320   -0.0225 C   0  0  0  0  0  0
    2.7185    0.0220    0.0256 C   0  0  0  0  0  0
    4.1368   -0.0106    0.0786 C   0  0  0  0  0  0
    4.9153    1.0662    0.2772 C   0  0  0  0  0  0
   -0.2634    2.0939    0.2384 H   0  0  0  0  0  0
   -1.7707    1.0386    0.0022 H   0  0  0  0  0  0
   -0.3830   -0.9446   -0.2609 H   0  0  0  0  0  0
    4.6000   -0.9879   -0.0542 H   0  0  0  0  0  0
    4.4926    2.0562    0.4133 H   0  0  0  0  0  0
    5.9960    0.9744    0.3069 H   0  0  0  0  0  0
  1  2  2  0  0  0
  1  7  1  0  0  0
  1  8  1  0  0  0
  2  3  1  0  0  0
  2  9  1  0  0  0
  3  4  3  0  0  0
  4  5  1  0  0  0
  5  6  2  0  0  0
  5 10  1  0  0  0
  6 11  1  0  0  0
  6 12  1  0  0  0
M  END
>  <i_m_Spin_multiplicity> (1)
1

>  <s_j_Task> (1)
Single Point

>  <s_j_QM_Method> (1)
DFT(b3lyp-d3)

>  <s_j_QM_Basis> (1)
cc-pvtz(-f)

>  <i_j_Number_of_canonical_orbitals> (1)
189

>  <i_j_Geometry_convergence_category> (1)
0

>  <r_j_Gas_Phase_Energy> (1)
-232.228036402089

>  <r_j_Final_Energy> (1)
-232.228036402089

>  <r_j_HOMO> (1)
-0.228172520138786

>  <r_j_LUMO> (1)
-0.058826540779777

>  <r_j_Polarizability> (1)
80.8750776444295

>  <r_j_QM_Dipole_(debye)> (1)
0.100071348716577

>  <r_j_QM_Dipole_X_(debye)> (1)
0.000886516181293723

>  <r_j_QM_Dipole_Y_(debye)> (1)
0.099199685508873

>  <r_j_QM_Dipole_Z_(debye)> (1)
0.0131495748203397

>  <r_j_Lowest_Frequency_(cm-1)> (1)
130.11044228945

>  <r_j_Highest_Frequency_(cm-1)> (1)
3197.49410612357

>  <r_j_2nd_Lowest_Frequency_(cm-1)> (1)
148.62894373372

>  <i_j_Num_Negative_Frequencies> (1)
0

>  <r_j_Zero_Point_Energy_(kcal/mol)> (1)
59.4389601849344

>  <r_j_Entropy_(cal/mol/K)_298.15K_1.00E+00atm> (1)
78.4827577910439

>  <r_j_Enthalpy_(kcal/mol)_298.15K_1.00E+00atm> (1)
4.6275883875581

>  <r_j_Free_Energy_(kcal/mol)_298.15K_1.00E+00atm> (1)
-18.7720458478417

>  <r_j_Internal_Energy_(kcal/mol)_298.15K_1.00E+00atm> (1)
4.03510279873082

>  <r_j_Heat_Capacity_(cal/mol/K)_298.15K_1.00E+00atm> (1)
22.4170045874814

>  <r_j_ln(Q)_298.15K_1.00E+00atm> (1)
31.6835484302627

>  <r_j_Total_Internal_Energy_(au)_298.15K_1.00E+00atm> (1)
-232.126884043411

>  <r_j_Total_Enthalpy_(au)_298.15K_1.00E+00atm> (1)
-232.125939857518

>  <r_j_Total_Free_Energy_(au)_298.15K_1.00E+00atm> (1)
-232.163229548518

>  <r_lp_tautomer_probability> (1)
1

>  <r_epik_Ionization_Penalty> (1)
  0.0000

>  <r_epik_Ionization_Penalty_Charging> (1)
  0.0000

>  <r_epik_Ionization_Penalty_Neutral> (1)
  0.0000

>  <r_epik_State_Penalty> (1)
  0.0000

>  <r_epik_Charging_Adjusted_Penalty> (1)
0

>  <i_epik_Tot_Q> (1)
0

>  <i_epik_Tot_abs_Q> (1)
0

>  <s_lp_Force_Field> (1)
S-OPLS

>  <r_lp_Energy> (1)
0.133053

>  <b_lp_Chiralities_Consistent> (1)
1

$$$$
