612782_Beta-amyrone
                    3D
 Schrodinger Suite 2021-3.
 79 83  0  0  1  0            999 V2000
   -0.0924    0.2337    0.3049 C   0  0  0  0  0  0
    1.4174    0.1742   -0.0097 C   0  0  0  0  0  0
    1.6714    0.9079   -1.3465 C   0  0  0  0  0  0
    1.3133    0.0581   -2.5699 C   0  0  0  0  0  0
    2.1078   -1.2675   -2.6483 C   0  0  0  0  0  0
    1.7337   -2.0075   -3.9585 C   0  0  0  0  0  0
    0.4063   -2.7746   -3.9508 C   0  0  0  0  0  0
    0.2895   -3.7332   -2.7349 C   0  0  0  0  0  0
    0.4715   -2.8764   -1.4718 C   0  0  0  0  0  0
   -0.4866   -2.8044   -0.5372 C   0  0  0  0  0  0
   -1.9089   -3.2709   -0.6977 C   0  0  0  0  0  0
   -2.2077   -3.5396   -2.1825 C   0  0  0  0  0  0
   -1.0991   -4.5131   -2.6946 C   0  0  0  0  0  0
   -1.5224   -4.9990   -4.0852 C   0  0  0  0  0  0
   -2.8313   -5.8059   -4.0571 C   0  0  0  0  0  0
   -3.8984   -5.3856   -2.9952 C   0  0  0  0  0  0
   -3.7217   -3.8847   -2.5768 C   0  0  0  0  0  0
   -4.1277   -3.0101   -3.7976 C   0  0  0  0  0  0
   -5.5231   -3.3433   -4.3670 C   0  0  0  0  0  0
   -5.7080   -4.8279   -4.6645 C   0  0  0  0  0  0
   -6.1302   -5.2117   -5.7404 O   0  0  0  0  0  0
   -5.3248   -5.7997   -3.5377 C   0  0  0  0  0  0
   -5.3015   -7.2477   -4.0731 C   0  0  0  0  0  0
   -6.4474   -5.7780   -2.4606 C   0  0  0  0  0  0
   -4.6264   -3.4869   -1.3915 C   0  0  0  0  0  0
   -0.9650   -5.7476   -1.7590 C   0  0  0  0  0  0
    1.8016   -2.1287   -1.3605 C   0  0  0  0  0  0
    2.0064   -1.2710   -0.0781 C   0  0  0  0  0  0
    1.4469   -4.7693   -2.8217 C   0  0  0  0  0  0
    3.6225   -0.9763   -2.7296 C   0  0  0  0  0  0
    2.1482    0.9177    1.1263 C   0  0  0  0  0  0
   -0.3986    1.2787    0.4333 H   0  0  0  0  0  0
   -0.3289   -0.2922    1.2365 H   0  0  0  0  0  0
   -0.7044   -0.1980   -0.4889 H   0  0  0  0  0  0
    1.0975    1.8435   -1.3590 H   0  0  0  0  0  0
    2.7249    1.2053   -1.4073 H   0  0  0  0  0  0
    0.2403   -0.1710   -2.5637 H   0  0  0  0  0  0
    1.4990    0.6378   -3.4832 H   0  0  0  0  0  0
    1.7216   -1.2747   -4.7757 H   0  0  0  0  0  0
    2.5392   -2.7043   -4.2138 H   0  0  0  0  0  0
   -0.4345   -2.0715   -3.9428 H   0  0  0  0  0  0
    0.3358   -3.3357   -4.8887 H   0  0  0  0  0  0
   -0.2871   -2.2775    0.3861 H   0  0  0  0  0  0
   -2.1246   -4.1473   -0.0714 H   0  0  0  0  0  0
   -2.5424   -2.4710   -0.3018 H   0  0  0  0  0  0
   -2.0184   -2.5801   -2.6790 H   0  0  0  0  0  0
   -1.6459   -4.1367   -4.7449 H   0  0  0  0  0  0
   -0.7392   -5.6155   -4.5419 H   0  0  0  0  0  0
   -3.2699   -5.7461   -5.0590 H   0  0  0  0  0  0
   -2.6002   -6.8623   -3.8988 H   0  0  0  0  0  0
   -3.7495   -5.9934   -2.0953 H   0  0  0  0  0  0
   -4.0967   -1.9504   -3.5148 H   0  0  0  0  0  0
   -3.3948   -3.1293   -4.6010 H   0  0  0  0  0  0
   -6.3007   -3.0401   -3.6552 H   0  0  0  0  0  0
   -5.7107   -2.7961   -5.2944 H   0  0  0  0  0  0
   -5.0066   -7.9360   -3.2729 H   0  0  0  0  0  0
   -4.6257   -7.3835   -4.9163 H   0  0  0  0  0  0
   -6.2971   -7.5282   -4.4227 H   0  0  0  0  0  0
   -6.0814   -6.2087   -1.5229 H   0  0  0  0  0  0
   -7.2911   -6.3834   -2.8027 H   0  0  0  0  0  0
   -6.8415   -4.7876   -2.2385 H   0  0  0  0  0  0
   -5.6823   -3.5018   -1.6442 H   0  0  0  0  0  0
   -4.4065   -2.4644   -1.0737 H   0  0  0  0  0  0
   -4.4870   -4.1468   -0.5303 H   0  0  0  0  0  0
   -1.9378   -6.1350   -1.4581 H   0  0  0  0  0  0
   -0.4169   -5.5096   -0.8453 H   0  0  0  0  0  0
   -0.4369   -6.5627   -2.2606 H   0  0  0  0  0  0
    2.5868   -2.8971   -1.3191 H   0  0  0  0  0  0
    3.0905   -1.1668    0.0453 H   0  0  0  0  0  0
    1.6800   -1.8373    0.8012 H   0  0  0  0  0  0
    1.2792   -5.4645   -3.6502 H   0  0  0  0  0  0
    1.5439   -5.3500   -1.9032 H   0  0  0  0  0  0
    2.4120   -4.2946   -2.9955 H   0  0  0  0  0  0
    4.1873   -1.9115   -2.8130 H   0  0  0  0  0  0
    4.0086   -0.4396   -1.8609 H   0  0  0  0  0  0
    3.8466   -0.3716   -3.6162 H   0  0  0  0  0  0
    3.2298    0.9495    0.9522 H   0  0  0  0  0  0
    1.9782    0.4268    2.0919 H   0  0  0  0  0  0
    1.7929    1.9511    1.2101 H   0  0  0  0  0  0
  1  2  1  0  0  0
  1 32  1  0  0  0
  1 33  1  0  0  0
  1 34  1  0  0  0
  2 28  1  0  0  0
  2  3  1  0  0  0
  2 31  1  0  0  0
  3  4  1  0  0  0
  3 35  1  0  0  0
  3 36  1  0  0  0
  4  5  1  0  0  0
  4 37  1  0  0  0
  4 38  1  0  0  0
  5 27  1  0  0  0
  5  6  1  0  0  0
  5 30  1  0  0  0
  6  7  1  0  0  0
  6 39  1  0  0  0
  6 40  1  0  0  0
  7  8  1  0  0  0
  7 41  1  0  0  0
  7 42  1  0  0  0
  8 13  1  0  0  0
  8  9  1  0  0  0
  8 29  1  0  0  0
  9 10  2  0  0  0
  9 27  1  0  0  0
 10 11  1  0  0  0
 10 43  1  0  0  0
 11 12  1  0  0  0
 11 44  1  0  0  0
 11 45  1  0  0  0
 12 17  1  0  0  0
 12 13  1  0  0  0
 12 46  1  0  0  0
 13 14  1  0  0  0
 13 26  1  0  0  0
 14 15  1  0  0  0
 14 47  1  0  0  0
 14 48  1  0  0  0
 15 16  1  0  0  0
 15 49  1  0  0  0
 15 50  1  0  0  0
 16 22  1  0  0  0
 16 17  1  0  0  0
 16 51  1  0  0  0
 17 18  1  0  0  0
 17 25  1  0  0  0
 18 19  1  0  0  0
 18 52  1  0  0  0
 18 53  1  0  0  0
 19 20  1  0  0  0
 19 54  1  0  0  0
 19 55  1  0  0  0
 20 21  2  0  0  0
 20 22  1  0  0  0
 22 23  1  0  0  0
 22 24  1  0  0  0
 23 56  1  0  0  0
 23 57  1  0  0  0
 23 58  1  0  0  0
 24 59  1  0  0  0
 24 60  1  0  0  0
 24 61  1  0  0  0
 25 62  1  0  0  0
 25 63  1  0  0  0
 25 64  1  0  0  0
 26 65  1  0  0  0
 26 66  1  0  0  0
 26 67  1  0  0  0
 27 28  1  0  0  0
 27 68  1  0  0  0
 28 69  1  0  0  0
 28 70  1  0  0  0
 29 71  1  0  0  0
 29 72  1  0  0  0
 29 73  1  0  0  0
 30 74  1  0  0  0
 30 75  1  0  0  0
 30 76  1  0  0  0
 31 77  1  0  0  0
 31 78  1  0  0  0
 31 79  1  0  0  0
M  END
>  <i_m_Spin_multiplicity> (1)
1

>  <s_j_Task> (1)
Single Point

>  <s_j_QM_Method> (1)
DFT(b3lyp-d3)

>  <s_j_QM_Basis> (1)
cc-pvtz(-f)

>  <i_j_Number_of_canonical_orbitals> (1)
1121

>  <i_j_Geometry_convergence_category> (1)
4

>  <r_j_Gas_Phase_Energy> (1)
-1247.80663678507

>  <r_j_Final_Energy> (1)
-1247.80663678507

>  <r_j_HOMO> (1)
-0.236994346857655

>  <r_j_LUMO> (1)
-0.025913739306156

>  <r_j_Polarizability> (1)
331.052024585512

>  <r_j_QM_Dipole_(debye)> (1)
2.87257454981013

>  <r_j_QM_Dipole_X_(debye)> (1)
1.51722194857007

>  <r_j_QM_Dipole_Y_(debye)> (1)
0.919561325031276

>  <r_j_QM_Dipole_Z_(debye)> (1)
2.25923196518216

>  <r_j_Lowest_Frequency_(cm-1)> (1)
45.1651741873768

>  <r_j_Highest_Frequency_(cm-1)> (1)
3170.39751397113

>  <r_j_2nd_Lowest_Frequency_(cm-1)> (1)
59.6117165545035

>  <i_j_Num_Negative_Frequencies> (1)
0

>  <r_j_Zero_Point_Energy_(kcal/mol)> (1)
455.559315374916

>  <r_j_Entropy_(cal/mol/K)_298.15K_1.00E+00atm> (1)
167.778943676151

>  <r_j_Enthalpy_(kcal/mol)_298.15K_1.00E+00atm> (1)
18.2100310102519

>  <r_j_Free_Energy_(kcal/mol)_298.15K_1.00E+00atm> (1)
-31.8132610467926

>  <r_j_Internal_Energy_(kcal/mol)_298.15K_1.00E+00atm> (1)
17.6175454214246

>  <r_j_Heat_Capacity_(cal/mol/K)_298.15K_1.00E+00atm> (1)
126.184072249805

>  <r_j_ln(Q)_298.15K_1.00E+00atm> (1)
53.6945735840792

>  <r_j_Total_Internal_Energy_(au)_298.15K_1.00E+00atm> (1)
-1247.05258145457

>  <r_j_Total_Enthalpy_(au)_298.15K_1.00E+00atm> (1)
-1247.05163726867

>  <r_j_Total_Free_Energy_(au)_298.15K_1.00E+00atm> (1)
-1247.13135445933

>  <r_lp_tautomer_probability> (1)
1

>  <r_epik_Ionization_Penalty> (1)
  0.0000

>  <r_epik_Ionization_Penalty_Charging> (1)
  0.0000

>  <r_epik_Ionization_Penalty_Neutral> (1)
  0.0000

>  <r_epik_State_Penalty> (1)
  0.0000

>  <r_epik_Charging_Adjusted_Penalty> (1)
0

>  <i_epik_Tot_Q> (1)
0

>  <i_epik_Tot_abs_Q> (1)
0

>  <s_lp_Force_Field> (1)
S-OPLS

>  <r_lp_Energy> (1)
91.412703

>  <b_lp_Chiralities_Consistent> (1)
1

$$$$
