612_Lactic acid
                    3D
 Schrodinger Suite 2021-3.
 11 10  0  0  1  0            999 V2000
    0.0122    0.0606    0.0548 C   0  0  0  0  0  0
    1.5408    0.0275    0.0681 C   0  0  0  0  0  0
    2.1197    0.7371   -1.2106 C   0  0  0  0  0  0
    1.7690    1.9177   -1.4148 O   0  0  0  0  0  0
    2.8873   -0.0122   -1.8894 O   0  5  0  0  0  0
    2.0290   -1.3045    0.1183 O   0  0  0  0  0  0
   -0.3267    1.0958   -0.0463 H   0  0  0  0  0  0
   -0.4131   -0.3814    0.9658 H   0  0  0  0  0  0
   -0.3573   -0.5141   -0.8031 H   0  0  0  0  0  0
    1.8949    0.5988    0.9465 H   0  0  0  0  0  0
    2.5812   -1.2766   -0.7079 H   0  0  0  0  0  0
  1  2  1  0  0  0
  1  7  1  0  0  0
  1  8  1  0  0  0
  1  9  1  0  0  0
  2  3  1  0  0  0
  2  6  1  0  0  0
  2 10  1  0  0  0
  3  4  2  0  0  0
  3  5  1  0  0  0
  6 11  1  0  0  0
M  END
>  <i_m_Spin_multiplicity> (1)
1

>  <s_j_Task> (1)
Single Point

>  <s_j_QM_Method> (1)
DFT(b3lyp-d3)

>  <s_j_QM_Basis> (1)
cc-pvtz(-f)

>  <i_j_Number_of_canonical_orbitals> (1)
183

>  <i_j_Geometry_convergence_category> (1)
1

>  <r_j_Gas_Phase_Energy> (1)
-343.20208414562

>  <r_j_Final_Energy> (1)
-343.20208414562

>  <r_j_HOMO> (1)
-0.0371412338014945

>  <r_j_LUMO> (1)
0.184953053401129

>  <r_j_Polarizability> (1)
49.9988338540568

>  <r_j_QM_Dipole_(debye)> (1)
3.22652497611721

>  <r_j_QM_Dipole_X_(debye)> (1)
-1.81699507292015

>  <r_j_QM_Dipole_Y_(debye)> (1)
-1.32066220973814

>  <r_j_QM_Dipole_Z_(debye)> (1)
2.31621321433533

>  <r_j_Lowest_Frequency_(cm-1)> (1)
111.093399847428

>  <r_j_Highest_Frequency_(cm-1)> (1)
3268.01232147697

>  <r_j_2nd_Lowest_Frequency_(cm-1)> (1)
274.663740987385

>  <i_j_Num_Negative_Frequencies> (1)
0

>  <r_j_Zero_Point_Energy_(kcal/mol)> (1)
51.3810917763451

>  <r_j_Entropy_(cal/mol/K)_298.15K_1.00E+00atm> (1)
76.1475744941729

>  <r_j_Enthalpy_(kcal/mol)_298.15K_1.00E+00atm> (1)
4.24881165320775

>  <r_j_Free_Energy_(kcal/mol)_298.15K_1.00E+00atm> (1)
-18.4545876822299

>  <r_j_Internal_Energy_(kcal/mol)_298.15K_1.00E+00atm> (1)
3.65632606438048

>  <r_j_Heat_Capacity_(cal/mol/K)_298.15K_1.00E+00atm> (1)
20.5112276327773

>  <r_j_ln(Q)_298.15K_1.00E+00atm> (1)
31.1477410256638

>  <r_j_Total_Internal_Energy_(au)_298.15K_1.00E+00atm> (1)
-343.114376436857

>  <r_j_Total_Enthalpy_(au)_298.15K_1.00E+00atm> (1)
-343.113432250964

>  <r_j_Total_Free_Energy_(au)_298.15K_1.00E+00atm> (1)
-343.149612421019

>  <r_epik_Ionization_Penalty> (1)
  0.0004

>  <r_epik_Ionization_Penalty_Charging> (1)
  0.0004

>  <r_epik_Ionization_Penalty_Neutral> (1)
  0.0000

>  <r_epik_State_Penalty> (1)
  0.0002

>  <r_epik_Charging_Adjusted_Penalty> (1)
0.000586848

>  <i_epik_Tot_Q> (1)
-1

>  <i_epik_Tot_abs_Q> (1)
1

>  <s_lp_Force_Field> (1)
S-OPLS

>  <r_lp_Energy> (1)
11.7102

>  <b_lp_Chiralities_Consistent> (1)
1

$$$$
