6163_Diethyl sulfate
                    3D
 Schrodinger Suite 2021-3.
 19 18  0  0  1  0            999 V2000
   -2.0315    1.1476    0.1030 C   0  0  0  0  0  0
   -0.5355    1.3792    0.0704 C   0  0  0  0  0  0
    0.0782    0.0624   -0.1194 O   0  0  0  0  0  0
    1.6736   -0.0309    0.0310 S   0  0  2  0  0  0
    2.1381    0.7836    1.1473 O   0  0  0  0  0  0
    2.0186   -1.4345   -0.0674 O   0  0  0  0  0  0
    2.0537    0.7344   -1.3572 O   0  0  0  0  0  0
    3.4778    1.0214   -1.5214 C   0  0  0  0  0  0
    3.6284    1.6869   -2.8732 C   0  0  0  0  0  0
   -2.5469    2.1043    0.2326 H   0  0  0  0  0  0
   -2.2999    0.4910    0.9346 H   0  0  0  0  0  0
   -2.3739    0.6900   -0.8286 H   0  0  0  0  0  0
   -0.2304    2.0170   -0.7647 H   0  0  0  0  0  0
   -0.1620    1.8048    1.0054 H   0  0  0  0  0  0
    3.7981    1.6714   -0.7014 H   0  0  0  0  0  0
    4.0318    0.0780   -1.4700 H   0  0  0  0  0  0
    4.6811    1.9289   -3.0481 H   0  0  0  0  0  0
    3.0476    2.6123   -2.9146 H   0  0  0  0  0  0
    3.2858    1.0222   -3.6704 H   0  0  0  0  0  0
  1  2  1  0  0  0
  1 10  1  0  0  0
  1 11  1  0  0  0
  1 12  1  0  0  0
  2  3  1  0  0  0
  2 13  1  0  0  0
  2 14  1  0  0  0
  3  4  1  0  0  0
  4  5  2  0  0  0
  4  6  2  0  0  0
  4  7  1  0  0  0
  7  8  1  0  0  0
  8  9  1  0  0  0
  8 15  1  0  0  0
  8 16  1  0  0  0
  9 17  1  0  0  0
  9 18  1  0  0  0
  9 19  1  0  0  0
M  END
>  <i_m_Spin_multiplicity> (1)
1

>  <s_j_Task> (1)
Single Point

>  <s_j_QM_Method> (1)
DFT(b3lyp-d3)

>  <s_j_QM_Basis> (1)
cc-pvtz(-f)

>  <i_j_Number_of_canonical_orbitals> (1)
301

>  <i_j_Geometry_convergence_category> (1)
3

>  <r_j_Gas_Phase_Energy> (1)
-857.697354608916

>  <r_j_Final_Energy> (1)
-857.697354608916

>  <r_j_HOMO> (1)
-0.299709613308419

>  <r_j_LUMO> (1)
0.0243054996486902

>  <r_j_Polarizability> (1)
82.4534354007717

>  <r_j_QM_Dipole_(debye)> (1)
3.92290109925919

>  <r_j_QM_Dipole_X_(debye)> (1)
-0.73397882065527

>  <r_j_QM_Dipole_Y_(debye)> (1)
3.2927394811718

>  <r_j_QM_Dipole_Z_(debye)> (1)
-2.00207263467911

>  <r_j_Lowest_Frequency_(cm-1)> (1)
65.5532225090162

>  <r_j_Highest_Frequency_(cm-1)> (1)
3088.50402567409

>  <r_j_2nd_Lowest_Frequency_(cm-1)> (1)
99.9420301588029

>  <i_j_Num_Negative_Frequencies> (1)
0

>  <r_j_Zero_Point_Energy_(kcal/mol)> (1)
95.2404978736443

>  <r_j_Entropy_(cal/mol/K)_298.15K_1.00E+00atm> (1)
98.6798314140301

>  <r_j_Enthalpy_(kcal/mol)_298.15K_1.00E+00atm> (1)
7.04155051529343

>  <r_j_Free_Energy_(kcal/mol)_298.15K_1.00E+00atm> (1)
-22.3798412207997

>  <r_j_Internal_Energy_(kcal/mol)_298.15K_1.00E+00atm> (1)
6.44906492646616

>  <r_j_Heat_Capacity_(cal/mol/K)_298.15K_1.00E+00atm> (1)
37.0546135789559

>  <r_j_ln(Q)_298.15K_1.00E+00atm> (1)
37.7728026517856

>  <r_j_Total_Internal_Energy_(au)_298.15K_1.00E+00atm> (1)
-857.535301974396

>  <r_j_Total_Enthalpy_(au)_298.15K_1.00E+00atm> (1)
-857.534357788504

>  <r_j_Total_Free_Energy_(au)_298.15K_1.00E+00atm> (1)
-857.581243760975

>  <r_lp_tautomer_probability> (1)
1

>  <r_epik_Ionization_Penalty> (1)
  0.0000

>  <r_epik_Ionization_Penalty_Charging> (1)
  0.0000

>  <r_epik_Ionization_Penalty_Neutral> (1)
  0.0000

>  <r_epik_State_Penalty> (1)
  0.0000

>  <r_epik_Charging_Adjusted_Penalty> (1)
0

>  <i_epik_Tot_Q> (1)
0

>  <i_epik_Tot_abs_Q> (1)
0

>  <s_lp_Force_Field> (1)
S-OPLS

>  <r_lp_Energy> (1)
4.598819

>  <b_lp_Chiralities_Consistent> (1)
1

$$$$
