61712_4-ethylsyringol
                    3D
 Schrodinger Suite 2021-3.
 27 27  0  0  1  0            999 V2000
   -0.6411    1.4589   -0.0098 C   0  0  0  0  0  0
   -0.0985    0.0189   -0.0077 C   0  0  0  0  0  0
    1.4151   -0.0291    0.0020 C   0  0  0  0  0  0
    2.1293   -0.0240   -1.2012 C   0  0  0  0  0  0
    3.5293   -0.0135   -1.2092 C   0  0  0  0  0  0
    4.2296   -0.0094    0.0061 C   0  0  0  0  0  0
    3.5079   -0.0145    1.2077 C   0  0  0  0  0  0
    2.1126   -0.0253    1.2142 C   0  0  0  0  0  0
    4.3159   -0.0136    2.3241 O   0  0  0  0  0  0
    3.6959   -0.0115    3.6000 C   0  0  0  0  0  0
    5.5933   -0.0054    0.0018 O   0  0  0  0  0  0
    4.3095   -0.0118   -2.3290 O   0  0  0  0  0  0
    3.6621   -0.0090   -3.5893 C   0  0  0  0  0  0
   -1.7364    1.4720   -0.0176 H   0  0  0  0  0  0
   -0.2856    2.0050   -0.8897 H   0  0  0  0  0  0
   -0.2983    2.0031    0.8763 H   0  0  0  0  0  0
   -0.4899   -0.5141    0.8675 H   0  0  0  0  0  0
   -0.4784   -0.5127   -0.8884 H   0  0  0  0  0  0
    1.5818   -0.0273   -2.1365 H   0  0  0  0  0  0
    1.5640   -0.0293    2.1492 H   0  0  0  0  0  0
    4.5049   -0.0081    4.3323 H   0  0  0  0  0  0
    3.0772   -0.9061    3.7476 H   0  0  0  0  0  0
    3.0738    0.8816    3.7427 H   0  0  0  0  0  0
    5.8696   -0.0068    0.9310 H   0  0  0  0  0  0
    4.4583   -0.0043   -4.3355 H   0  0  0  0  0  0
    3.0359    0.8834   -3.7248 H   0  0  0  0  0  0
    3.0407   -0.9038   -3.7314 H   0  0  0  0  0  0
  1  2  1  0  0  0
  1 14  1  0  0  0
  1 15  1  0  0  0
  1 16  1  0  0  0
  2  3  1  0  0  0
  2 17  1  0  0  0
  2 18  1  0  0  0
  3  8  1  0  0  0
  3  4  2  0  0  0
  4  5  1  0  0  0
  4 19  1  0  0  0
  5  6  2  0  0  0
  5 12  1  0  0  0
  6  7  1  0  0  0
  6 11  1  0  0  0
  7  8  2  0  0  0
  7  9  1  0  0  0
  8 20  1  0  0  0
  9 10  1  0  0  0
 10 21  1  0  0  0
 10 22  1  0  0  0
 10 23  1  0  0  0
 11 24  1  0  0  0
 12 13  1  0  0  0
 13 25  1  0  0  0
 13 26  1  0  0  0
 13 27  1  0  0  0
M  END
>  <i_m_Spin_multiplicity> (1)
1

>  <s_j_Task> (1)
Single Point

>  <s_j_QM_Method> (1)
DFT(b3lyp-d3)

>  <s_j_QM_Basis> (1)
cc-pvtz(-f)

>  <i_j_Number_of_canonical_orbitals> (1)
418

>  <i_j_Geometry_convergence_category> (1)
3

>  <r_j_Gas_Phase_Energy> (1)
-615.371272897837

>  <r_j_Final_Energy> (1)
-615.371272897837

>  <r_j_HOMO> (1)
-0.198434127049551

>  <r_j_LUMO> (1)
0.00614167183992313

>  <r_j_Polarizability> (1)
132.942741140477

>  <r_j_QM_Dipole_(debye)> (1)
2.21535889863105

>  <r_j_QM_Dipole_X_(debye)> (1)
-1.73897013591155

>  <r_j_QM_Dipole_Y_(debye)> (1)
0.0238105039794959

>  <r_j_QM_Dipole_Z_(debye)> (1)
1.3723086300289

>  <r_j_Lowest_Frequency_(cm-1)> (1)
69.1877516834852

>  <r_j_Highest_Frequency_(cm-1)> (1)
3721.54904303967

>  <r_j_2nd_Lowest_Frequency_(cm-1)> (1)
75.8528165221128

>  <i_j_Num_Negative_Frequencies> (1)
0

>  <r_j_Zero_Point_Energy_(kcal/mol)> (1)
141.637107043507

>  <r_j_Entropy_(cal/mol/K)_298.15K_1.00E+00atm> (1)
110.387989615567

>  <r_j_Enthalpy_(kcal/mol)_298.15K_1.00E+00atm> (1)
8.74208644510528

>  <r_j_Free_Energy_(kcal/mol)_298.15K_1.00E+00atm> (1)
-24.170092658776

>  <r_j_Internal_Energy_(kcal/mol)_298.15K_1.00E+00atm> (1)
8.149600856278

>  <r_j_Heat_Capacity_(cal/mol/K)_298.15K_1.00E+00atm> (1)
49.9158609957188

>  <r_j_ln(Q)_298.15K_1.00E+00atm> (1)
40.7943975593004

>  <r_j_Total_Internal_Energy_(au)_298.15K_1.00E+00atm> (1)
-615.132572583243

>  <r_j_Total_Enthalpy_(au)_298.15K_1.00E+00atm> (1)
-615.131628397351

>  <r_j_Total_Free_Energy_(au)_298.15K_1.00E+00atm> (1)
-615.184077293627

>  <r_lp_tautomer_probability> (1)
1

>  <r_epik_Ionization_Penalty> (1)
  0.0004

>  <r_epik_Ionization_Penalty_Charging> (1)
  0.0000

>  <r_epik_Ionization_Penalty_Neutral> (1)
  0.0004

>  <r_epik_State_Penalty> (1)
  0.0003

>  <r_epik_Charging_Adjusted_Penalty> (1)
0.000275477

>  <i_epik_Tot_Q> (1)
0

>  <i_epik_Tot_abs_Q> (1)
0

>  <s_lp_Force_Field> (1)
S-OPLS

>  <r_lp_Energy> (1)
17.5253

>  <b_lp_Chiralities_Consistent> (1)
1

$$$$
