62010_4,4-Dimethyloxazolidine
                    3D
 Schrodinger Suite 2021-3.
 19 19  0  0  1  0            999 V2000
   -0.0437    0.0005    0.0014 C   0  0  0  0  0  0
    1.4837    0.0088    0.0360 C   0  0  0  0  0  0
    2.0846    0.5148   -1.2990 C   0  0  0  0  0  0
    2.0453   -0.6292   -2.1548 O   0  0  0  0  0  0
    2.5934   -1.6594   -1.4233 C   0  0  0  0  0  0
    1.9611   -1.4864   -0.0185 N   0  3  1  0  0  0
    2.0597    0.6854    1.2731 C   0  0  0  0  0  0
   -0.4075    1.0307    0.0185 H   0  0  0  0  0  0
   -0.4628   -0.5096    0.8749 H   0  0  0  0  0  0
   -0.4141   -0.4727   -0.9128 H   0  0  0  0  0  0
    1.4826    1.3016   -1.7531 H   0  0  0  0  0  0
    3.1171    0.8682   -1.1683 H   0  0  0  0  0  0
    2.3227   -2.6262   -1.8478 H   0  0  0  0  0  0
    3.6785   -1.5746   -1.2770 H   0  0  0  0  0  0
    2.6312   -1.6947    0.7267 H   0  0  0  0  0  0
    1.8021    1.7478    1.2466 H   0  0  0  0  0  0
    3.1517    0.6126    1.3089 H   0  0  0  0  0  0
    1.6391    0.2696    2.1930 H   0  0  0  0  0  0
    1.1608   -2.1124    0.1034 H   0  0  0  0  0  0
  1  2  1  0  0  0
  1  8  1  0  0  0
  1  9  1  0  0  0
  1 10  1  0  0  0
  2  6  1  0  0  0
  2  3  1  0  0  0
  2  7  1  0  0  0
  3  4  1  0  0  0
  3 11  1  0  0  0
  3 12  1  0  0  0
  4  5  1  0  0  0
  5  6  1  0  0  0
  5 13  1  0  0  0
  5 14  1  0  0  0
  6 15  1  0  0  0
  6 19  1  0  0  0
  7 16  1  0  0  0
  7 17  1  0  0  0
  7 18  1  0  0  0
M  END
>  <i_m_Spin_multiplicity> (1)
1

>  <s_j_Task> (1)
Single Point

>  <s_j_QM_Method> (1)
DFT(b3lyp-d3)

>  <s_j_QM_Basis> (1)
cc-pvtz(-f)

>  <i_j_Number_of_canonical_orbitals> (1)
267

>  <i_j_Geometry_convergence_category> (1)
0

>  <r_j_Gas_Phase_Energy> (1)
-327.612760218727

>  <r_j_Final_Energy> (1)
-327.612760218727

>  <r_j_HOMO> (1)
-0.463336033175985

>  <r_j_LUMO> (1)
-0.175739463803123

>  <r_j_Polarizability> (1)
64.7323061778337

>  <r_j_QM_Dipole_(debye)> (1)
3.79731823331759

>  <r_j_QM_Dipole_X_(debye)> (1)
0.820511577370215

>  <r_j_QM_Dipole_Y_(debye)> (1)
-2.39437817143962

>  <r_j_QM_Dipole_Z_(debye)> (1)
2.83078428860645

>  <r_j_Lowest_Frequency_(cm-1)> (1)
119.95944682912

>  <r_j_Highest_Frequency_(cm-1)> (1)
3453.04206251126

>  <r_j_2nd_Lowest_Frequency_(cm-1)> (1)
277.171567522548

>  <i_j_Num_Negative_Frequencies> (1)
0

>  <r_j_Zero_Point_Energy_(kcal/mol)> (1)
110.048698434389

>  <r_j_Entropy_(cal/mol/K)_298.15K_1.00E+00atm> (1)
80.8606491606935

>  <r_j_Enthalpy_(kcal/mol)_298.15K_1.00E+00atm> (1)
5.00290209938584

>  <r_j_Free_Energy_(kcal/mol)_298.15K_1.00E+00atm> (1)
-19.1057004478749

>  <r_j_Internal_Energy_(kcal/mol)_298.15K_1.00E+00atm> (1)
4.41041651055856

>  <r_j_Heat_Capacity_(cal/mol/K)_298.15K_1.00E+00atm> (1)
27.8628711146766

>  <r_j_ln(Q)_298.15K_1.00E+00atm> (1)
32.2466922540537

>  <r_j_Total_Internal_Energy_(au)_298.15K_1.00E+00atm> (1)
-327.430358007419

>  <r_j_Total_Enthalpy_(au)_298.15K_1.00E+00atm> (1)
-327.429413821527

>  <r_j_Total_Free_Energy_(au)_298.15K_1.00E+00atm> (1)
-327.467833325454

>  <r_epik_Ionization_Penalty> (1)
  0.2759

>  <r_epik_Ionization_Penalty_Charging> (1)
  0.2759

>  <r_epik_Ionization_Penalty_Neutral> (1)
  0.0000

>  <r_epik_State_Penalty> (1)
  0.2683

>  <r_epik_Charging_Adjusted_Penalty> (1)
0.5442

>  <i_epik_Tot_Q> (1)
1

>  <i_epik_Tot_abs_Q> (1)
1

>  <s_lp_Force_Field> (1)
S-OPLS

>  <r_lp_Energy> (1)
4.08977

>  <b_lp_Chiralities_Consistent> (1)
1

>  <s_epik_Chemistry_Notes> (1)
This compound contains an acetal/aminal-like group ( X-CH(R)-Y where X, Y are N, S, or O) that may be acid/base labile, releasing an aldehyde.

$$$$
