620189_Methyl-7-oxodehydroabietate
                    3D
 Schrodinger Suite 2021-3.
 52 54  0  0  1  0            999 V2000
   -0.6665   -0.6408   -1.1819 C   0  0  0  0  0  0
   -0.0716    0.1731   -0.0181 C   0  0  0  0  0  0
   -0.5724    1.6284   -0.0522 C   0  0  0  0  0  0
    1.4481    0.1033   -0.0089 C   0  0  0  0  0  0
    2.1396   -0.4687    1.0546 C   0  0  0  0  0  0
    3.5388   -0.5514    1.0690 C   0  0  0  0  0  0
    4.3009   -0.0480   -0.0065 C   0  0  0  0  0  0
    3.6009    0.5326   -1.0709 C   0  0  0  0  0  0
    2.2098    0.6026   -1.0750 C   0  0  0  0  0  0
    5.8321   -0.0650    0.0617 C   0  0  0  0  0  0
    6.5216   -0.0011   -1.3214 C   0  0  0  0  0  0
    6.3521   -1.2743   -2.1521 C   0  0  0  0  0  0
    6.9342   -2.4722   -1.3949 C   0  0  0  0  0  0
    6.2648   -2.6726   -0.0062 C   0  0  0  0  0  0
    6.3418   -1.3327    0.8175 C   0  0  0  0  0  0
    5.6788   -1.4580    2.2013 C   0  0  0  0  0  0
    4.1730   -1.2382    2.2320 C   0  0  0  0  0  0
    3.5157   -1.6161    3.1920 O   0  0  0  0  0  0
    4.8451   -3.2425   -0.1848 C   0  0  0  0  0  0
    7.0766   -3.7249    0.7660 C   0  0  0  0  0  0
    6.6462   -4.7776    1.1859 O   0  0  0  0  0  0
    8.3670   -3.3455    0.9431 O   0  0  0  0  0  0
    9.1823   -4.2783    1.6728 C   0  0  0  0  0  0
    6.2548    1.2068    0.8445 C   0  0  0  0  0  0
   -0.3353   -1.6830   -1.1459 H   0  0  0  0  0  0
   -0.3616   -0.2258   -2.1492 H   0  0  0  0  0  0
   -1.7612   -0.6264   -1.1451 H   0  0  0  0  0  0
   -0.4223   -0.2788    0.9184 H   0  0  0  0  0  0
   -0.1744    2.2037    0.7890 H   0  0  0  0  0  0
   -1.6663    1.6626   -0.0052 H   0  0  0  0  0  0
   -0.2644    2.1299   -0.9765 H   0  0  0  0  0  0
    1.6061   -0.8810    1.9061 H   0  0  0  0  0  0
    4.1409    0.9349   -1.9208 H   0  0  0  0  0  0
    1.7100    1.0538   -1.9283 H   0  0  0  0  0  0
    6.1815    0.8802   -1.8744 H   0  0  0  0  0  0
    7.5935    0.1589   -1.1422 H   0  0  0  0  0  0
    5.2930   -1.4367   -2.3818 H   0  0  0  0  0  0
    6.8660   -1.1643   -3.1140 H   0  0  0  0  0  0
    6.8254   -3.3932   -1.9797 H   0  0  0  0  0  0
    8.0083   -2.3101   -1.2521 H   0  0  0  0  0  0
    7.4116   -1.1649    0.9815 H   0  0  0  0  0  0
    5.8681   -2.4318    2.6635 H   0  0  0  0  0  0
    6.1086   -0.7177    2.8870 H   0  0  0  0  0  0
    4.2156   -2.5705   -0.7664 H   0  0  0  0  0  0
    4.3567   -3.4259    0.7740 H   0  0  0  0  0  0
    4.9013   -4.2051   -0.6994 H   0  0  0  0  0  0
   10.1710   -3.8232    1.7320 H   0  0  0  0  0  0
    9.2292   -5.2378    1.1514 H   0  0  0  0  0  0
    8.7732   -4.4449    2.6727 H   0  0  0  0  0  0
    7.3378    1.2209    1.0115 H   0  0  0  0  0  0
    5.7546    1.2797    1.8130 H   0  0  0  0  0  0
    5.9848    2.1001    0.2726 H   0  0  0  0  0  0
  1  2  1  0  0  0
  1 25  1  0  0  0
  1 26  1  0  0  0
  1 27  1  0  0  0
  2  3  1  0  0  0
  2  4  1  0  0  0
  2 28  1  0  0  0
  3 29  1  0  0  0
  3 30  1  0  0  0
  3 31  1  0  0  0
  4  9  1  0  0  0
  4  5  2  0  0  0
  5  6  1  0  0  0
  5 32  1  0  0  0
  6 17  1  0  0  0
  6  7  2  0  0  0
  7  8  1  0  0  0
  7 10  1  0  0  0
  8  9  2  0  0  0
  8 33  1  0  0  0
  9 34  1  0  0  0
 10 15  1  0  0  0
 10 11  1  0  0  0
 10 24  1  0  0  0
 11 12  1  0  0  0
 11 35  1  0  0  0
 11 36  1  0  0  0
 12 13  1  0  0  0
 12 37  1  0  0  0
 12 38  1  0  0  0
 13 14  1  0  0  0
 13 39  1  0  0  0
 13 40  1  0  0  0
 14 15  1  0  0  0
 14 19  1  0  0  0
 14 20  1  0  0  0
 15 16  1  0  0  0
 15 41  1  0  0  0
 16 17  1  0  0  0
 16 42  1  0  0  0
 16 43  1  0  0  0
 17 18  2  0  0  0
 19 44  1  0  0  0
 19 45  1  0  0  0
 19 46  1  0  0  0
 20 21  2  0  0  0
 20 22  1  0  0  0
 22 23  1  0  0  0
 23 47  1  0  0  0
 23 48  1  0  0  0
 23 49  1  0  0  0
 24 50  1  0  0  0
 24 51  1  0  0  0
 24 52  1  0  0  0
M  END
>  <i_m_Spin_multiplicity> (1)
1

>  <s_j_Task> (1)
Single Point

>  <s_j_QM_Method> (1)
DFT(b3lyp-d3)

>  <s_j_QM_Basis> (1)
cc-pvtz(-f)

>  <i_j_Number_of_canonical_orbitals> (1)
788

>  <i_j_Geometry_convergence_category> (1)
3

>  <r_j_Gas_Phase_Energy> (1)
-1043.20444131331

>  <r_j_Final_Energy> (1)
-1043.20444131331

>  <r_j_HOMO> (1)
-0.250467390442316

>  <r_j_LUMO> (1)
-0.0720447459005972

>  <r_j_Polarizability> (1)
245.117969572763

>  <r_j_QM_Dipole_(debye)> (1)
4.48706073880398

>  <r_j_QM_Dipole_X_(debye)> (1)
2.13196383943377

>  <r_j_QM_Dipole_Y_(debye)> (1)
2.44102727688117

>  <r_j_QM_Dipole_Z_(debye)> (1)
-3.10319675408844

>  <r_j_Lowest_Frequency_(cm-1)> (1)
42.4558474193136

>  <r_j_Highest_Frequency_(cm-1)> (1)
3150.78217721683

>  <r_j_2nd_Lowest_Frequency_(cm-1)> (1)
61.8008150204186

>  <i_j_Num_Negative_Frequencies> (1)
0

>  <r_j_Zero_Point_Energy_(kcal/mol)> (1)
283.133364606767

>  <r_j_Entropy_(cal/mol/K)_298.15K_1.00E+00atm> (1)
147.103367821313

>  <r_j_Enthalpy_(kcal/mol)_298.15K_1.00E+00atm> (1)
14.3055170819124

>  <r_j_Free_Energy_(kcal/mol)_298.15K_1.00E+00atm> (1)
-29.553352034012

>  <r_j_Internal_Energy_(kcal/mol)_298.15K_1.00E+00atm> (1)
13.7130314930851

>  <r_j_Heat_Capacity_(cal/mol/K)_298.15K_1.00E+00atm> (1)
90.6267681428016

>  <r_j_ln(Q)_298.15K_1.00E+00atm> (1)
49.8802883839047

>  <r_j_Total_Internal_Energy_(au)_298.15K_1.00E+00atm> (1)
-1042.73138646667

>  <r_j_Total_Enthalpy_(au)_298.15K_1.00E+00atm> (1)
-1042.73044228078

>  <r_j_Total_Free_Energy_(au)_298.15K_1.00E+00atm> (1)
-1042.8003358381

>  <r_lp_tautomer_probability> (1)
1

>  <r_epik_Ionization_Penalty> (1)
  0.0000

>  <r_epik_Ionization_Penalty_Charging> (1)
  0.0000

>  <r_epik_Ionization_Penalty_Neutral> (1)
  0.0000

>  <r_epik_State_Penalty> (1)
  0.0000

>  <r_epik_Charging_Adjusted_Penalty> (1)
0

>  <i_epik_Tot_Q> (1)
0

>  <i_epik_Tot_abs_Q> (1)
0

>  <s_lp_Force_Field> (1)
S-OPLS

>  <r_lp_Energy> (1)
38.386

>  <b_lp_Chiralities_Consistent> (1)
1

>  <s_epik_Chemistry_Notes> (1)
This compound has an ester and may undergo hydrolysis at high or low pH.

$$$$
