62072_Tetradecenal
                    3D
 Schrodinger Suite 2021-3.
 41 40  0  0  1  0            999 V2000
   -0.5086    6.9162    0.5265 C   0  0  0  0  0  0
   -0.7683    6.0245   -0.6912 C   0  0  0  0  0  0
   -0.5777    4.5326   -0.3925 C   0  0  0  0  0  0
   -0.8463    3.6450   -1.6112 C   0  0  0  0  0  0
   -0.6758    2.1613   -1.4101 C   0  0  0  0  0  0
   -0.3304    1.5331   -0.2832 C   0  0  0  0  0  0
   -0.1456    0.0435   -0.1597 C   0  0  0  0  0  0
    1.3301   -0.3814    0.0185 C   0  0  0  0  0  0
    2.0489    0.2352    1.2291 C   0  0  0  0  0  0
    1.4116   -0.1061    2.5821 C   0  0  0  0  0  0
    2.2205    0.4170    3.7743 C   0  0  0  0  0  0
    1.5958    0.0606    5.1280 C   0  0  0  0  0  0
    2.4170    0.5877    6.3202 C   0  0  0  0  0  0
    1.8367    0.1301    7.6374 C   0  0  0  0  0  0
    1.4416    0.8654    8.5148 O   0  0  0  0  0  0
   -0.6503    7.9752    0.2870 H   0  0  0  0  0  0
    0.5161    6.7916    0.8952 H   0  0  0  0  0  0
   -1.1877    6.6665    1.3498 H   0  0  0  0  0  0
   -1.7900    6.1925   -1.0583 H   0  0  0  0  0  0
   -0.0992    6.3181   -1.5116 H   0  0  0  0  0  0
    0.4459    4.3610   -0.0324 H   0  0  0  0  0  0
   -1.2448    4.2388    0.4290 H   0  0  0  0  0  0
   -1.8676    3.8341   -1.9772 H   0  0  0  0  0  0
   -0.1912    3.9607   -2.4381 H   0  0  0  0  0  0
   -0.8605    1.5550   -2.2994 H   0  0  0  0  0  0
   -0.1426    2.1152    0.6180 H   0  0  0  0  0  0
   -0.7330   -0.3317    0.6896 H   0  0  0  0  0  0
   -0.5459   -0.4529   -1.0520 H   0  0  0  0  0  0
    1.3715   -1.4765    0.0978 H   0  0  0  0  0  0
    1.8785   -0.1122   -0.8926 H   0  0  0  0  0  0
    3.0909   -0.1120    1.2296 H   0  0  0  0  0  0
    2.0957    1.3262    1.1149 H   0  0  0  0  0  0
    0.3950    0.3059    2.6325 H   0  0  0  0  0  0
    1.3016   -1.1971    2.6671 H   0  0  0  0  0  0
    3.2413    0.0117    3.7297 H   0  0  0  0  0  0
    2.3229    1.5083    3.6966 H   0  0  0  0  0  0
    0.5778    0.4677    5.1835 H   0  0  0  0  0  0
    1.4958   -1.0311    5.2062 H   0  0  0  0  0  0
    3.4430    0.1968    6.2487 H   0  0  0  0  0  0
    2.4659    1.6809    6.3207 H   0  0  0  0  0  0
    1.7751   -0.9787    7.7531 H   0  0  0  0  0  0
  1  2  1  0  0  0
  1 16  1  0  0  0
  1 17  1  0  0  0
  1 18  1  0  0  0
  2  3  1  0  0  0
  2 19  1  0  0  0
  2 20  1  0  0  0
  3  4  1  0  0  0
  3 21  1  0  0  0
  3 22  1  0  0  0
  4  5  1  0  0  0
  4 23  1  0  0  0
  4 24  1  0  0  0
  5  6  2  0  0  0
  5 25  1  0  0  0
  6  7  1  0  0  0
  6 26  1  0  0  0
  7  8  1  0  0  0
  7 27  1  0  0  0
  7 28  1  0  0  0
  8  9  1  0  0  0
  8 29  1  0  0  0
  8 30  1  0  0  0
  9 10  1  0  0  0
  9 31  1  0  0  0
  9 32  1  0  0  0
 10 11  1  0  0  0
 10 33  1  0  0  0
 10 34  1  0  0  0
 11 12  1  0  0  0
 11 35  1  0  0  0
 11 36  1  0  0  0
 12 13  1  0  0  0
 12 37  1  0  0  0
 12 38  1  0  0  0
 13 14  1  0  0  0
 13 39  1  0  0  0
 13 40  1  0  0  0
 14 15  2  0  0  0
 14 41  1  0  0  0
M  END
>  <i_m_Spin_multiplicity> (1)
1

>  <s_j_Task> (1)
Single Point

>  <s_j_QM_Method> (1)
DFT(b3lyp-d3)

>  <s_j_QM_Basis> (1)
cc-pvtz(-f)

>  <i_j_Number_of_canonical_orbitals> (1)
575

>  <i_j_Geometry_convergence_category> (1)
3

>  <r_j_Gas_Phase_Energy> (1)
-624.60832444328

>  <r_j_Final_Energy> (1)
-624.60832444328

>  <r_j_HOMO> (1)
-0.233519126188768

>  <r_j_LUMO> (1)
-0.0699579127931299

>  <r_j_Polarizability> (1)
174.2041775471

>  <r_j_QM_Dipole_(debye)> (1)
3.14468571553306

>  <r_j_QM_Dipole_X_(debye)> (1)
0.860902753705536

>  <r_j_QM_Dipole_Y_(debye)> (1)
-1.03804226101073

>  <r_j_QM_Dipole_Z_(debye)> (1)
-2.84083842597491

>  <r_j_Lowest_Frequency_(cm-1)> (1)
23.1091772482239

>  <r_j_Highest_Frequency_(cm-1)> (1)
3097.98072802001

>  <r_j_2nd_Lowest_Frequency_(cm-1)> (1)
58.8949025856311

>  <i_j_Num_Negative_Frequencies> (1)
0

>  <r_j_Zero_Point_Energy_(kcal/mol)> (1)
234.876071407182

>  <r_j_Entropy_(cal/mol/K)_298.15K_1.00E+00atm> (1)
132.85909074241

>  <r_j_Enthalpy_(kcal/mol)_298.15K_1.00E+00atm> (1)
11.5708993819119

>  <r_j_Free_Energy_(kcal/mol)_298.15K_1.00E+00atm> (1)
-28.0410385229377

>  <r_j_Internal_Energy_(kcal/mol)_298.15K_1.00E+00atm> (1)
10.9784137930847

>  <r_j_Heat_Capacity_(cal/mol/K)_298.15K_1.00E+00atm> (1)
66.0507503719209

>  <r_j_ln(Q)_298.15K_1.00E+00atm> (1)
47.3277984337817

>  <r_j_Total_Internal_Energy_(au)_298.15K_1.00E+00atm> (1)
-624.216530379677

>  <r_j_Total_Enthalpy_(au)_298.15K_1.00E+00atm> (1)
-624.215586193785

>  <r_j_Total_Free_Energy_(au)_298.15K_1.00E+00atm> (1)
-624.278711835387

>  <r_lp_tautomer_probability> (1)
1

>  <r_epik_Ionization_Penalty> (1)
  0.0000

>  <r_epik_Ionization_Penalty_Charging> (1)
  0.0000

>  <r_epik_Ionization_Penalty_Neutral> (1)
  0.0000

>  <r_epik_State_Penalty> (1)
  0.0000

>  <r_epik_Charging_Adjusted_Penalty> (1)
0

>  <i_epik_Tot_Q> (1)
0

>  <i_epik_Tot_abs_Q> (1)
0

>  <s_lp_Force_Field> (1)
S-OPLS

>  <r_lp_Energy> (1)
0.065923

>  <b_lp_Chiralities_Consistent> (1)
1

$$$$
