6212_Chloroform
                    3D
 Schrodinger Suite 2021-3.
  5  4  0  0  1  0            999 V2000
    0.3757    0.0703   -0.0392 C   0  0  0  0  0  0
    1.2687   -0.0012    1.5098 Cl  0  0  0  0  0  0
    0.3672    1.7299   -0.7090 Cl  0  0  0  0  0  0
   -1.2850   -0.5733    0.1363 Cl  0  0  0  0  0  0
    0.8988   -0.5655   -0.7485 H   0  0  0  0  0  0
  1  2  1  0  0  0
  1  3  1  0  0  0
  1  4  1  0  0  0
  1  5  1  0  0  0
M  END
>  <i_m_Spin_multiplicity> (1)
1

>  <s_j_Task> (1)
Single Point

>  <s_j_QM_Method> (1)
DFT(b3lyp-d3)

>  <s_j_QM_Basis> (1)
cc-pvtz(-f)

>  <i_j_Number_of_canonical_orbitals> (1)
113

>  <i_j_Geometry_convergence_category> (1)
3

>  <r_j_Gas_Phase_Energy> (1)
-1419.40644911313

>  <r_j_Final_Energy> (1)
-1419.40644911313

>  <r_j_HOMO> (1)
-0.315555777317265

>  <r_j_LUMO> (1)
-0.0525068147015683

>  <r_j_Polarizability> (1)
47.7817411126366

>  <r_j_QM_Dipole_(debye)> (1)
1.11312429149826

>  <r_j_QM_Dipole_X_(debye)> (1)
0.535989673418356

>  <r_j_QM_Dipole_Y_(debye)> (1)
-0.651455144311576

>  <r_j_QM_Dipole_Z_(debye)> (1)
-0.726200353389044

>  <r_j_Lowest_Frequency_(cm-1)> (1)
253.323061031329

>  <r_j_Highest_Frequency_(cm-1)> (1)
3112.95492060401

>  <r_j_2nd_Lowest_Frequency_(cm-1)> (1)
253.39719693163

>  <i_j_Num_Negative_Frequencies> (1)
0

>  <r_j_Zero_Point_Energy_(kcal/mol)> (1)
12.2554362515351

>  <r_j_Entropy_(cal/mol/K)_298.15K_1.00E+00atm> (1)
73.1139157757589

>  <r_j_Enthalpy_(kcal/mol)_298.15K_1.00E+00atm> (1)
3.42992610239753

>  <r_j_Free_Energy_(kcal/mol)_298.15K_1.00E+00atm> (1)
-18.368987886145

>  <r_j_Internal_Energy_(kcal/mol)_298.15K_1.00E+00atm> (1)
2.83744051357026

>  <r_j_Heat_Capacity_(cal/mol/K)_298.15K_1.00E+00atm> (1)
13.8938143165032

>  <r_j_ln(Q)_298.15K_1.00E+00atm> (1)
31.0032652819511

>  <r_j_Total_Internal_Energy_(au)_298.15K_1.00E+00atm> (1)
-1419.38239708286

>  <r_j_Total_Enthalpy_(au)_298.15K_1.00E+00atm> (1)
-1419.38145289697

>  <r_j_Total_Free_Energy_(au)_298.15K_1.00E+00atm> (1)
-1419.41619167786

>  <r_lp_tautomer_probability> (1)
1

>  <r_epik_Ionization_Penalty> (1)
  0.0000

>  <r_epik_Ionization_Penalty_Charging> (1)
  0.0000

>  <r_epik_Ionization_Penalty_Neutral> (1)
  0.0000

>  <r_epik_State_Penalty> (1)
  0.0000

>  <r_epik_Charging_Adjusted_Penalty> (1)
0

>  <i_epik_Tot_Q> (1)
0

>  <i_epik_Tot_abs_Q> (1)
0

>  <s_lp_Force_Field> (1)
S-OPLS

>  <r_lp_Energy> (1)
0.022382

>  <b_lp_Chiralities_Consistent> (1)
1

$$$$
