6213_Dimethyl sulfone
                    3D
 Schrodinger Suite 2021-3.
 11 10  0  0  1  0            999 V2000
   -0.0140    0.0182    0.0001 C   0  0  0  0  0  0
    1.7950    0.0188    0.0000 S   0  0  2  0  0  0
    2.2451    0.5870   -1.2792 O   0  0  0  0  0  0
    2.2452    0.5869    1.2792 O   0  0  0  0  0  0
    2.2072   -1.7426    0.0000 C   0  0  0  0  0  0
   -0.3143    1.0675   -0.0001 H   0  0  0  0  0  0
   -0.3755   -0.4769    0.9026 H   0  0  0  0  0  0
   -0.3755   -0.4771   -0.9024 H   0  0  0  0  0  0
    3.2974   -1.7952    0.0003 H   0  0  0  0  0  0
    1.8079   -2.2076   -0.9025 H   0  0  0  0  0  0
    1.8076   -2.2076    0.9024 H   0  0  0  0  0  0
  1  2  1  0  0  0
  1  6  1  0  0  0
  1  7  1  0  0  0
  1  8  1  0  0  0
  2  3  2  0  0  0
  2  4  2  0  0  0
  2  5  1  0  0  0
  5  9  1  0  0  0
  5 10  1  0  0  0
  5 11  1  0  0  0
M  END
>  <i_m_Spin_multiplicity> (1)
1

>  <s_j_Task> (1)
Single Point

>  <s_j_QM_Method> (1)
DFT(b3lyp-d3)

>  <s_j_QM_Basis> (1)
cc-pvtz(-f)

>  <i_j_Number_of_canonical_orbitals> (1)
173

>  <i_j_Geometry_convergence_category> (1)
0

>  <r_j_Gas_Phase_Energy> (1)
-628.546330919275

>  <r_j_Final_Energy> (1)
-628.546330919275

>  <r_j_HOMO> (1)
-0.297750654791509

>  <r_j_LUMO> (1)
0.00638606623024154

>  <r_j_Polarizability> (1)
50.4383170041997

>  <r_j_QM_Dipole_(debye)> (1)
4.58635864792902

>  <r_j_QM_Dipole_X_(debye)> (1)
-2.84803890098992

>  <r_j_QM_Dipole_Y_(debye)> (1)
-3.59490686399234

>  <r_j_QM_Dipole_Z_(debye)> (1)
-0.0021691247660273

>  <r_j_Lowest_Frequency_(cm-1)> (1)
240.550437741558

>  <r_j_Highest_Frequency_(cm-1)> (1)
3123.11779339469

>  <r_j_2nd_Lowest_Frequency_(cm-1)> (1)
260.57503904408

>  <i_j_Num_Negative_Frequencies> (1)
0

>  <r_j_Zero_Point_Energy_(kcal/mol)> (1)
52.973086980035

>  <r_j_Entropy_(cal/mol/K)_298.15K_1.00E+00atm> (1)
75.872222877139

>  <r_j_Enthalpy_(kcal/mol)_298.15K_1.00E+00atm> (1)
4.38624981873525

>  <r_j_Free_Energy_(kcal/mol)_298.15K_1.00E+00atm> (1)
-18.2350534320837

>  <r_j_Internal_Energy_(kcal/mol)_298.15K_1.00E+00atm> (1)
3.79376422990797

>  <r_j_Heat_Capacity_(cal/mol/K)_298.15K_1.00E+00atm> (1)
21.5508592919399

>  <r_j_ln(Q)_298.15K_1.00E+00atm> (1)
30.7772100721926

>  <r_j_Total_Internal_Energy_(au)_298.15K_1.00E+00atm> (1)
-628.45586718299

>  <r_j_Total_Enthalpy_(au)_298.15K_1.00E+00atm> (1)
-628.454922997098

>  <r_j_Total_Free_Energy_(au)_298.15K_1.00E+00atm> (1)
-628.490972338713

>  <r_lp_tautomer_probability> (1)
1

>  <r_epik_Ionization_Penalty> (1)
  0.0000

>  <r_epik_Ionization_Penalty_Charging> (1)
  0.0000

>  <r_epik_Ionization_Penalty_Neutral> (1)
  0.0000

>  <r_epik_State_Penalty> (1)
  0.0000

>  <r_epik_Charging_Adjusted_Penalty> (1)
0

>  <i_epik_Tot_Q> (1)
0

>  <i_epik_Tot_abs_Q> (1)
0

>  <s_lp_Force_Field> (1)
S-OPLS

>  <r_lp_Energy> (1)
-11.478712

>  <b_lp_Chiralities_Consistent> (1)
1

$$$$
