62447_2-undecenal
                    3D
 Schrodinger Suite 2021-3.
 32 31  0  0  1  0            999 V2000
   -4.2622    2.8801   -0.0768 C   0  0  0  0  0  0
   -2.7325    2.8699   -0.0020 C   0  0  0  0  0  0
   -2.1391    1.4566   -0.0398 C   0  0  0  0  0  0
   -0.6078    1.4379    0.0205 C   0  0  0  0  0  0
   -0.0129    0.0257   -0.0136 C   0  0  0  0  0  0
    1.5190    0.0140    0.0237 C   0  0  0  0  0  0
    2.1110   -1.4014   -0.0198 C   0  0  0  0  0  0
    3.6449   -1.4351    0.0241 C   0  0  0  0  0  0
    4.2971   -1.0702    1.3270 C   0  0  0  0  0  0
    3.7059   -0.8853    2.5178 C   0  0  0  0  0  0
    4.4955   -0.5562    3.7124 C   0  0  0  0  0  0
    4.0232   -0.3794    4.8204 O   0  0  0  0  0  0
   -4.6605    3.8996   -0.0462 H   0  0  0  0  0  0
   -4.7015    2.3248    0.7600 H   0  0  0  0  0  0
   -4.6143    2.4119   -1.0034 H   0  0  0  0  0  0
   -2.3195    3.4572   -0.8335 H   0  0  0  0  0  0
   -2.4051    3.3743    0.9173 H   0  0  0  0  0  0
   -2.5446    0.8703    0.7973 H   0  0  0  0  0  0
   -2.4734    0.9473   -0.9553 H   0  0  0  0  0  0
   -0.2047    2.0218   -0.8195 H   0  0  0  0  0  0
   -0.2728    1.9505    0.9334 H   0  0  0  0  0  0
   -0.4020   -0.5532    0.8363 H   0  0  0  0  0  0
   -0.3597   -0.4945   -0.9181 H   0  0  0  0  0  0
    1.9085    0.5896   -0.8282 H   0  0  0  0  0  0
    1.8649    0.5375    0.9234 H   0  0  0  0  0  0
    1.7045   -2.0031    0.8037 H   0  0  0  0  0  0
    1.7814   -1.8958   -0.9421 H   0  0  0  0  0  0
    4.0048   -2.4399   -0.2461 H   0  0  0  0  0  0
    4.0510   -0.7765   -0.7581 H   0  0  0  0  0  0
    5.3837   -0.9665    1.2849 H   0  0  0  0  0  0
    2.6322   -0.9678    2.6611 H   0  0  0  0  0  0
    5.5941   -0.4741    3.5371 H   0  0  0  0  0  0
  1  2  1  0  0  0
  1 13  1  0  0  0
  1 14  1  0  0  0
  1 15  1  0  0  0
  2  3  1  0  0  0
  2 16  1  0  0  0
  2 17  1  0  0  0
  3  4  1  0  0  0
  3 18  1  0  0  0
  3 19  1  0  0  0
  4  5  1  0  0  0
  4 20  1  0  0  0
  4 21  1  0  0  0
  5  6  1  0  0  0
  5 22  1  0  0  0
  5 23  1  0  0  0
  6  7  1  0  0  0
  6 24  1  0  0  0
  6 25  1  0  0  0
  7  8  1  0  0  0
  7 26  1  0  0  0
  7 27  1  0  0  0
  8  9  1  0  0  0
  8 28  1  0  0  0
  8 29  1  0  0  0
  9 10  2  0  0  0
  9 30  1  0  0  0
 10 11  1  0  0  0
 10 31  1  0  0  0
 11 12  2  0  0  0
 11 32  1  0  0  0
M  END
>  <i_m_Spin_multiplicity> (1)
1

>  <s_j_Task> (1)
Single Point

>  <s_j_QM_Method> (1)
DFT(b3lyp-d3)

>  <s_j_QM_Basis> (1)
cc-pvtz(-f)

>  <i_j_Number_of_canonical_orbitals> (1)
452

>  <i_j_Geometry_convergence_category> (1)
0

>  <r_j_Gas_Phase_Energy> (1)
-506.627829098568

>  <r_j_Final_Energy> (1)
-506.627829098568

>  <r_j_HOMO> (1)
-0.277507341719115

>  <r_j_LUMO> (1)
-0.0805872066830065

>  <r_j_Polarizability> (1)
138.52436237653

>  <r_j_QM_Dipole_(debye)> (1)
4.11398168826201

>  <r_j_QM_Dipole_X_(debye)> (1)
0.2698332438052

>  <r_j_QM_Dipole_Y_(debye)> (1)
-0.660776460868922

>  <r_j_QM_Dipole_Z_(debye)> (1)
-4.05159349153567

>  <r_j_Lowest_Frequency_(cm-1)> (1)
39.492054290198

>  <r_j_Highest_Frequency_(cm-1)> (1)
3138.46548565082

>  <r_j_2nd_Lowest_Frequency_(cm-1)> (1)
81.6103659274121

>  <i_j_Num_Negative_Frequencies> (1)
0

>  <r_j_Zero_Point_Energy_(kcal/mol)> (1)
181.364894795385

>  <r_j_Entropy_(cal/mol/K)_298.15K_1.00E+00atm> (1)
115.52053164301

>  <r_j_Enthalpy_(kcal/mol)_298.15K_1.00E+00atm> (1)
9.2659846969643

>  <r_j_Free_Energy_(kcal/mol)_298.15K_1.00E+00atm> (1)
-25.176461812399

>  <r_j_Internal_Energy_(kcal/mol)_298.15K_1.00E+00atm> (1)
8.67349910813702

>  <r_j_Heat_Capacity_(cal/mol/K)_298.15K_1.00E+00atm> (1)
51.7126450488204

>  <r_j_ln(Q)_298.15K_1.00E+00atm> (1)
42.4929522121062

>  <r_j_Total_Internal_Energy_(au)_298.15K_1.00E+00atm> (1)
-506.324983638876

>  <r_j_Total_Enthalpy_(au)_298.15K_1.00E+00atm> (1)
-506.324039452984

>  <r_j_Total_Free_Energy_(au)_298.15K_1.00E+00atm> (1)
-506.378926985612

>  <r_lp_tautomer_probability> (1)
1

>  <r_epik_Ionization_Penalty> (1)
  0.0000

>  <r_epik_Ionization_Penalty_Charging> (1)
  0.0000

>  <r_epik_Ionization_Penalty_Neutral> (1)
  0.0000

>  <r_epik_State_Penalty> (1)
  0.0000

>  <r_epik_Charging_Adjusted_Penalty> (1)
0

>  <i_epik_Tot_Q> (1)
0

>  <i_epik_Tot_abs_Q> (1)
0

>  <s_lp_Force_Field> (1)
S-OPLS

>  <r_lp_Energy> (1)
0.435161

>  <b_lp_Chiralities_Consistent> (1)
1

$$$$
