62465_4-ethyl-2-methoxyphenol
                    3D
 Schrodinger Suite 2021-3.
 23 23  0  0  1  0            999 V2000
   -0.5836    1.4445   -0.0259 C   0  0  0  0  0  0
   -0.0363    0.0124    0.1057 C   0  0  0  0  0  0
    1.4768   -0.0352    0.0796 C   0  0  0  0  0  0
    2.1599   -0.0125   -1.1491 C   0  0  0  0  0  0
    3.5523   -0.0039   -1.2092 C   0  0  0  0  0  0
    4.2962   -0.0169   -0.0074 C   0  0  0  0  0  0
    3.6219   -0.0371    1.2081 C   0  0  0  0  0  0
    2.2235   -0.0457    1.2544 C   0  0  0  0  0  0
    5.6593   -0.0128   -0.1169 O   0  0  0  0  0  0
    4.2921    0.0115   -2.3554 O   0  0  0  0  0  0
    3.5999    0.0279   -3.5919 C   0  0  0  0  0  0
   -1.6790    1.4549   -0.0114 H   0  0  0  0  0  0
   -0.2504    1.9031   -0.9629 H   0  0  0  0  0  0
   -0.2239    2.0732    0.7951 H   0  0  0  0  0  0
   -0.4009   -0.4309    1.0399 H   0  0  0  0  0  0
   -0.4402   -0.6043   -0.7072 H   0  0  0  0  0  0
    1.5809   -0.0050   -2.0660 H   0  0  0  0  0  0
    4.1982   -0.0510    2.1312 H   0  0  0  0  0  0
    1.7207   -0.0630    2.2175 H   0  0  0  0  0  0
    6.0365   -0.0270    0.7721 H   0  0  0  0  0  0
    4.3687    0.0409   -4.3663 H   0  0  0  0  0  0
    2.9695    0.9218   -3.6943 H   0  0  0  0  0  0
    2.9736   -0.8655   -3.7206 H   0  0  0  0  0  0
  1  2  1  0  0  0
  1 12  1  0  0  0
  1 13  1  0  0  0
  1 14  1  0  0  0
  2  3  1  0  0  0
  2 15  1  0  0  0
  2 16  1  0  0  0
  3  8  1  0  0  0
  3  4  2  0  0  0
  4  5  1  0  0  0
  4 17  1  0  0  0
  5  6  2  0  0  0
  5 10  1  0  0  0
  6  7  1  0  0  0
  6  9  1  0  0  0
  7  8  2  0  0  0
  7 18  1  0  0  0
  8 19  1  0  0  0
  9 20  1  0  0  0
 10 11  1  0  0  0
 11 21  1  0  0  0
 11 22  1  0  0  0
 11 23  1  0  0  0
M  END
>  <i_m_Spin_multiplicity> (1)
1

>  <s_j_Task> (1)
Single Point

>  <s_j_QM_Method> (1)
DFT(b3lyp-d3)

>  <s_j_QM_Basis> (1)
cc-pvtz(-f)

>  <i_j_Number_of_canonical_orbitals> (1)
355

>  <i_j_Geometry_convergence_category> (1)
0

>  <r_j_Gas_Phase_Energy> (1)
-500.803776970163

>  <r_j_Final_Energy> (1)
-500.803776970163

>  <r_j_HOMO> (1)
-0.203625286979465

>  <r_j_LUMO> (1)
-0.0019356384598701

>  <r_j_Polarizability> (1)
114.117954848638

>  <r_j_QM_Dipole_(debye)> (1)
0.799561236893146

>  <r_j_QM_Dipole_X_(debye)> (1)
-0.774754113875812

>  <r_j_QM_Dipole_Y_(debye)> (1)
0.0155985046235062

>  <r_j_QM_Dipole_Z_(debye)> (1)
0.197004876153138

>  <r_j_Lowest_Frequency_(cm-1)> (1)
79.8852795940748

>  <r_j_Highest_Frequency_(cm-1)> (1)
3774.49482053788

>  <r_j_2nd_Lowest_Frequency_(cm-1)> (1)
106.814408343028

>  <i_j_Num_Negative_Frequencies> (1)
0

>  <r_j_Zero_Point_Energy_(kcal/mol)> (1)
121.034875234038

>  <r_j_Entropy_(cal/mol/K)_298.15K_1.00E+00atm> (1)
99.2307147700684

>  <r_j_Enthalpy_(kcal/mol)_298.15K_1.00E+00atm> (1)
7.22194151045512

>  <r_j_Free_Energy_(kcal/mol)_298.15K_1.00E+00atm> (1)
-22.3636960982408

>  <r_j_Internal_Energy_(kcal/mol)_298.15K_1.00E+00atm> (1)
6.62945592162785

>  <r_j_Heat_Capacity_(cal/mol/K)_298.15K_1.00E+00atm> (1)
41.0735158835398

>  <r_j_ln(Q)_298.15K_1.00E+00atm> (1)
37.7455528369997

>  <r_j_Total_Internal_Energy_(au)_298.15K_1.00E+00atm> (1)
-500.600330907181

>  <r_j_Total_Enthalpy_(au)_298.15K_1.00E+00atm> (1)
-500.599386721289

>  <r_j_Total_Free_Energy_(au)_298.15K_1.00E+00atm> (1)
-500.646534436221

>  <r_lp_tautomer_probability> (1)
1

>  <r_epik_Ionization_Penalty> (1)
  0.0004

>  <r_epik_Ionization_Penalty_Charging> (1)
  0.0000

>  <r_epik_Ionization_Penalty_Neutral> (1)
  0.0004

>  <r_epik_State_Penalty> (1)
  0.0003

>  <r_epik_Charging_Adjusted_Penalty> (1)
0.000275477

>  <i_epik_Tot_Q> (1)
0

>  <i_epik_Tot_abs_Q> (1)
0

>  <s_lp_Force_Field> (1)
S-OPLS

>  <r_lp_Energy> (1)
13.2593

>  <b_lp_Chiralities_Consistent> (1)
1

$$$$
