6276_Pentanol
                    3D
 Schrodinger Suite 2021-3.
 18 17  0  0  1  0            999 V2000
   -2.0735    1.4778    0.0000 C   0  0  0  0  0  0
   -0.5430    1.4257   -0.0001 C   0  0  0  0  0  0
    0.0076   -0.0054    0.0000 C   0  0  0  0  0  0
    1.5388   -0.0600    0.0000 C   0  0  0  0  0  0
    2.0831   -1.4819   -0.0001 C   0  0  0  0  0  0
    3.5053   -1.4073    0.0002 O   0  0  0  0  0  0
   -2.4409    2.5092   -0.0001 H   0  0  0  0  0  0
   -2.4849    0.9770    0.8840 H   0  0  0  0  0  0
   -2.4850    0.9768   -0.8838 H   0  0  0  0  0  0
   -0.1557    1.9607   -0.8776 H   0  0  0  0  0  0
   -0.1555    1.9609    0.8773 H   0  0  0  0  0  0
   -0.3806   -0.5411    0.8784 H   0  0  0  0  0  0
   -0.3806   -0.5413   -0.8783 H   0  0  0  0  0  0
    1.9357    0.4627   -0.8793 H   0  0  0  0  0  0
    1.9357    0.4625    0.8794 H   0  0  0  0  0  0
    1.7089   -2.0216    0.8869 H   0  0  0  0  0  0
    1.7092   -2.0213   -0.8874 H   0  0  0  0  0  0
    3.8529   -2.3079    0.0001 H   0  0  0  0  0  0
  1  2  1  0  0  0
  1  7  1  0  0  0
  1  8  1  0  0  0
  1  9  1  0  0  0
  2  3  1  0  0  0
  2 10  1  0  0  0
  2 11  1  0  0  0
  3  4  1  0  0  0
  3 12  1  0  0  0
  3 13  1  0  0  0
  4  5  1  0  0  0
  4 14  1  0  0  0
  4 15  1  0  0  0
  5  6  1  0  0  0
  5 16  1  0  0  0
  5 17  1  0  0  0
  6 18  1  0  0  0
M  END
>  <i_m_Spin_multiplicity> (1)
1

>  <s_j_Task> (1)
Single Point

>  <s_j_QM_Method> (1)
DFT(b3lyp-d3)

>  <s_j_QM_Basis> (1)
cc-pvtz(-f)

>  <i_j_Number_of_canonical_orbitals> (1)
245

>  <i_j_Geometry_convergence_category> (1)
0

>  <r_j_Gas_Phase_Energy> (1)
-273.09357778741

>  <r_j_Final_Energy> (1)
-273.09357778741

>  <r_j_HOMO> (1)
-0.280301960504682

>  <r_j_LUMO> (1)
0.0204587499656702

>  <r_j_Polarizability> (1)
67.3746957442044

>  <r_j_QM_Dipole_(debye)> (1)
1.40465209634218

>  <r_j_QM_Dipole_X_(debye)> (1)
-0.749881011261064

>  <r_j_QM_Dipole_Y_(debye)> (1)
-1.18773978149833

>  <r_j_QM_Dipole_Z_(debye)> (1)
-0.000438354729700872

>  <r_j_Lowest_Frequency_(cm-1)> (1)
94.4883610951769

>  <r_j_Highest_Frequency_(cm-1)> (1)
3771.74808251775

>  <r_j_2nd_Lowest_Frequency_(cm-1)> (1)
149.756141999727

>  <i_j_Num_Negative_Frequencies> (1)
0

>  <r_j_Zero_Point_Energy_(kcal/mol)> (1)
103.685506540887

>  <r_j_Entropy_(cal/mol/K)_298.15K_1.00E+00atm> (1)
84.5673741140108

>  <r_j_Enthalpy_(kcal/mol)_298.15K_1.00E+00atm> (1)
5.44673150886158

>  <r_j_Free_Energy_(kcal/mol)_298.15K_1.00E+00atm> (1)
-19.7670310832307

>  <r_j_Internal_Energy_(kcal/mol)_298.15K_1.00E+00atm> (1)
4.85424592003431

>  <r_j_Heat_Capacity_(cal/mol/K)_298.15K_1.00E+00atm> (1)
27.4185281858384

>  <r_j_ln(Q)_298.15K_1.00E+00atm> (1)
33.3628892516293

>  <r_j_Total_Internal_Energy_(au)_298.15K_1.00E+00atm> (1)
-272.920608680728

>  <r_j_Total_Enthalpy_(au)_298.15K_1.00E+00atm> (1)
-272.919664494835

>  <r_j_Total_Free_Energy_(au)_298.15K_1.00E+00atm> (1)
-272.959845183411

>  <r_lp_tautomer_probability> (1)
1

>  <r_epik_Ionization_Penalty> (1)
  0.0000

>  <r_epik_Ionization_Penalty_Charging> (1)
  0.0000

>  <r_epik_Ionization_Penalty_Neutral> (1)
  0.0000

>  <r_epik_State_Penalty> (1)
  0.0000

>  <r_epik_Charging_Adjusted_Penalty> (1)
0

>  <i_epik_Tot_Q> (1)
0

>  <i_epik_Tot_abs_Q> (1)
0

>  <s_lp_Force_Field> (1)
S-OPLS

>  <r_lp_Energy> (1)
2.555281

>  <b_lp_Chiralities_Consistent> (1)
1

$$$$
