6278_1,1,1-trichloroethane
                    3D
 Schrodinger Suite 2021-3.
  8  7  0  0  1  0            999 V2000
   -0.0245    0.0002    0.0001 C   0  0  0  0  0  0
    1.4951    0.0001    0.0003 C   0  0  0  0  0  0
    2.1094   -1.6987   -0.0023 Cl  0  0  0  0  0  0
    2.1084    0.8508   -1.4712 Cl  0  0  0  0  0  0
    2.1081    0.8473    1.4735 Cl  0  0  0  0  0  0
   -0.3850    1.0304   -0.0033 H   0  0  0  0  0  0
   -0.3852   -0.5117    0.8942 H   0  0  0  0  0  0
   -0.3849   -0.5180   -0.8902 H   0  0  0  0  0  0
  1  2  1  0  0  0
  1  6  1  0  0  0
  1  7  1  0  0  0
  1  8  1  0  0  0
  2  3  1  0  0  0
  2  4  1  0  0  0
  2  5  1  0  0  0
M  END
>  <i_m_Spin_multiplicity> (1)
1

>  <s_j_Task> (1)
Single Point

>  <s_j_QM_Method> (1)
DFT(b3lyp-d3)

>  <s_j_QM_Basis> (1)
cc-pvtz(-f)

>  <i_j_Number_of_canonical_orbitals> (1)
154

>  <i_j_Geometry_convergence_category> (1)
3

>  <r_j_Gas_Phase_Energy> (1)
-1458.74241230436

>  <r_j_Final_Energy> (1)
-1458.74241230436

>  <r_j_HOMO> (1)
-0.309058742997301

>  <r_j_LUMO> (1)
-0.048689451471998

>  <r_j_Polarizability> (1)
60.8022606835778

>  <r_j_QM_Dipole_(debye)> (1)
1.85913175316828

>  <r_j_QM_Dipole_X_(debye)> (1)
-1.8591309705251

>  <r_j_QM_Dipole_Y_(debye)> (1)
-0.000297026475112466

>  <r_j_QM_Dipole_Z_(debye)> (1)
0.00167983578357661

>  <r_j_Lowest_Frequency_(cm-1)> (1)
235.801125223417

>  <r_j_Highest_Frequency_(cm-1)> (1)
3104.68250554093

>  <r_j_2nd_Lowest_Frequency_(cm-1)> (1)
236.427925419451

>  <i_j_Num_Negative_Frequencies> (1)
0

>  <r_j_Zero_Point_Energy_(kcal/mol)> (1)
29.5590651286762

>  <r_j_Entropy_(cal/mol/K)_298.15K_1.00E+00atm> (1)
78.3914924878324

>  <r_j_Enthalpy_(kcal/mol)_298.15K_1.00E+00atm> (1)
4.25873448686422

>  <r_j_Free_Energy_(kcal/mol)_298.15K_1.00E+00atm> (1)
-19.113688998383

>  <r_j_Internal_Energy_(kcal/mol)_298.15K_1.00E+00atm> (1)
3.66624889803694

>  <r_j_Heat_Capacity_(cal/mol/K)_298.15K_1.00E+00atm> (1)
19.9021349152291

>  <r_j_ln(Q)_298.15K_1.00E+00atm> (1)
32.2601753676665

>  <r_j_Total_Internal_Energy_(au)_298.15K_1.00E+00atm> (1)
-1458.68946439582

>  <r_j_Total_Enthalpy_(au)_298.15K_1.00E+00atm> (1)
-1458.68852020993

>  <r_j_Total_Free_Energy_(au)_298.15K_1.00E+00atm> (1)
-1458.72576653784

>  <r_lp_tautomer_probability> (1)
1

>  <r_epik_Ionization_Penalty> (1)
  0.0000

>  <r_epik_Ionization_Penalty_Charging> (1)
  0.0000

>  <r_epik_Ionization_Penalty_Neutral> (1)
  0.0000

>  <r_epik_State_Penalty> (1)
  0.0000

>  <r_epik_Charging_Adjusted_Penalty> (1)
0

>  <i_epik_Tot_Q> (1)
0

>  <i_epik_Tot_abs_Q> (1)
0

>  <s_lp_Force_Field> (1)
S-OPLS

>  <r_lp_Energy> (1)
-1.09318

>  <b_lp_Chiralities_Consistent> (1)
1

$$$$
