62838_Neodecanoic acid
                    3D
 Schrodinger Suite 2021-3.
 31 30  0  0  1  0            999 V2000
   -2.7527    0.8041   -1.2628 C   0  0  0  0  0  0
   -2.1136    1.4490   -0.0187 C   0  0  0  0  0  0
   -2.4811    2.9455    0.0073 C   0  0  0  0  0  0
   -2.6740    0.7793    1.2501 C   0  0  0  0  0  0
   -0.5687    1.3281   -0.0684 C   0  0  0  0  0  0
    0.0300   -0.0844   -0.0876 C   0  0  0  0  0  0
    1.5646   -0.0824   -0.1374 C   0  0  0  0  0  0
    2.1797   -1.4862   -0.1237 C   0  0  0  0  0  0
    3.7074   -1.5141   -0.1518 C   0  0  0  0  0  0
    4.3214   -2.9444    0.1224 C   0  0  0  0  0  0
    5.4597   -3.1333   -0.3702 O   0  0  0  0  0  0
    3.6117   -3.7083    0.8282 O   0  5  0  0  0  0
   -3.8403    0.9468   -1.2610 H   0  0  0  0  0  0
   -2.5582   -0.2715   -1.3029 H   0  0  0  0  0  0
   -2.3566    1.2502   -2.1828 H   0  0  0  0  0  0
   -2.1034    3.4592   -0.8847 H   0  0  0  0  0  0
   -2.0505    3.4414    0.8852 H   0  0  0  0  0  0
   -3.5685    3.0873    0.0413 H   0  0  0  0  0  0
   -3.7586    0.9269    1.3224 H   0  0  0  0  0  0
   -2.2160    1.2029    2.1517 H   0  0  0  0  0  0
   -2.4834   -0.2978    1.2544 H   0  0  0  0  0  0
   -0.2126    1.8717   -0.9563 H   0  0  0  0  0  0
   -0.1571    1.8689    0.7967 H   0  0  0  0  0  0
   -0.2890   -0.6432    0.8018 H   0  0  0  0  0  0
   -0.3504   -0.6452   -0.9518 H   0  0  0  0  0  0
    1.8946    0.4645   -1.0345 H   0  0  0  0  0  0
    1.9506    0.4916    0.7193 H   0  0  0  0  0  0
    1.8664   -2.0400    0.7693 H   0  0  0  0  0  0
    1.7881   -2.0601   -0.9774 H   0  0  0  0  0  0
    4.1001   -1.1353   -1.1047 H   0  0  0  0  0  0
    4.0945   -0.8386    0.6291 H   0  0  0  0  0  0
  1  2  1  0  0  0
  1 13  1  0  0  0
  1 14  1  0  0  0
  1 15  1  0  0  0
  2  3  1  0  0  0
  2  4  1  0  0  0
  2  5  1  0  0  0
  3 16  1  0  0  0
  3 17  1  0  0  0
  3 18  1  0  0  0
  4 19  1  0  0  0
  4 20  1  0  0  0
  4 21  1  0  0  0
  5  6  1  0  0  0
  5 22  1  0  0  0
  5 23  1  0  0  0
  6  7  1  0  0  0
  6 24  1  0  0  0
  6 25  1  0  0  0
  7  8  1  0  0  0
  7 26  1  0  0  0
  7 27  1  0  0  0
  8  9  1  0  0  0
  8 28  1  0  0  0
  8 29  1  0  0  0
  9 10  1  0  0  0
  9 30  1  0  0  0
  9 31  1  0  0  0
 10 11  2  0  0  0
 10 12  1  0  0  0
M  END
>  <i_m_Spin_multiplicity> (1)
1

>  <s_j_Task> (1)
Single Point

>  <s_j_QM_Method> (1)
DFT(b3lyp-d3)

>  <s_j_QM_Basis> (1)
cc-pvtz(-f)

>  <i_j_Number_of_canonical_orbitals> (1)
444

>  <i_j_Geometry_convergence_category> (1)
3

>  <r_j_Gas_Phase_Energy> (1)
-543.244886990799

>  <r_j_Final_Energy> (1)
-543.244886990799

>  <r_j_HOMO> (1)
-0.0441180278882823

>  <r_j_LUMO> (1)
0.104303845258727

>  <r_j_Polarizability> (1)
133.371969273528

>  <r_j_QM_Dipole_(debye)> (1)
19.7751201402768

>  <r_j_QM_Dipole_X_(debye)> (1)
-15.4908988635625

>  <r_j_QM_Dipole_Y_(debye)> (1)
12.2622908675518

>  <r_j_QM_Dipole_Z_(debye)> (1)
-0.850677166036142

>  <r_j_Lowest_Frequency_(cm-1)> (1)
54.3266617537045

>  <r_j_Highest_Frequency_(cm-1)> (1)
3057.88874940408

>  <r_j_2nd_Lowest_Frequency_(cm-1)> (1)
69.6389791310764

>  <i_j_Num_Negative_Frequencies> (1)
0

>  <r_j_Zero_Point_Energy_(kcal/mol)> (1)
172.369149814132

>  <r_j_Entropy_(cal/mol/K)_298.15K_1.00E+00atm> (1)
113.950591985706

>  <r_j_Enthalpy_(kcal/mol)_298.15K_1.00E+00atm> (1)
9.1718993942195

>  <r_j_Free_Energy_(kcal/mol)_298.15K_1.00E+00atm> (1)
-24.8024696063186

>  <r_j_Internal_Energy_(kcal/mol)_298.15K_1.00E+00atm> (1)
8.57941380539222

>  <r_j_Heat_Capacity_(cal/mol/K)_298.15K_1.00E+00atm> (1)
52.2165812954579

>  <r_j_ln(Q)_298.15K_1.00E+00atm> (1)
41.8617263846213

>  <r_j_Total_Internal_Energy_(au)_298.15K_1.00E+00atm> (1)
-542.956527097809

>  <r_j_Total_Enthalpy_(au)_298.15K_1.00E+00atm> (1)
-542.955582911916

>  <r_j_Total_Free_Energy_(au)_298.15K_1.00E+00atm> (1)
-543.009724515549

>  <r_epik_Ionization_Penalty> (1)
  0.0049

>  <r_epik_Ionization_Penalty_Charging> (1)
  0.0049

>  <r_epik_Ionization_Penalty_Neutral> (1)
  0.0000

>  <r_epik_State_Penalty> (1)
  0.0035

>  <r_epik_Charging_Adjusted_Penalty> (1)
0.00839021531719891

>  <i_epik_Tot_Q> (1)
-1

>  <i_epik_Tot_abs_Q> (1)
1

>  <s_lp_Force_Field> (1)
S-OPLS

>  <r_lp_Energy> (1)
10.396772

>  <b_lp_Chiralities_Consistent> (1)
1

$$$$
