62847_2,2-Dimethyl Octanoic Acid
                    3D
 Schrodinger Suite 2021-3.
 31 30  0  0  1  0            999 V2000
   -4.1654    3.0527    0.0387 C   0  0  0  0  0  0
   -2.6369    2.9547    0.0798 C   0  0  0  0  0  0
   -2.1175    1.5163   -0.0318 C   0  0  0  0  0  0
   -0.5891    1.4072    0.0148 C   0  0  0  0  0  0
   -0.0737   -0.0319   -0.0941 C   0  0  0  0  0  0
    1.4565   -0.1178   -0.0526 C   0  0  0  0  0  0
    2.0466   -1.5408   -0.0080 C   0  0  0  0  0  0
    1.5946   -2.3905   -1.2067 C   0  0  0  0  0  0
    3.5834   -1.4427   -0.0350 C   0  0  0  0  0  0
    1.6682   -2.3067    1.3428 C   0  0  0  0  0  0
    2.0269   -3.5103    1.3705 O   0  0  0  0  0  0
    1.0903   -1.6291    2.2321 O   0  5  0  0  0  0
   -4.5120    4.0900    0.1182 H   0  0  0  0  0  0
   -4.6167    2.4857    0.8615 H   0  0  0  0  0  0
   -4.5605    2.6395   -0.8973 H   0  0  0  0  0  0
   -2.2087    3.5582   -0.7333 H   0  0  0  0  0  0
   -2.2661    3.4004    1.0133 H   0  0  0  0  0  0
   -2.5462    0.9107    0.7792 H   0  0  0  0  0  0
   -2.4875    1.0711   -0.9678 H   0  0  0  0  0  0
   -0.1601    2.0211   -0.7935 H   0  0  0  0  0  0
   -0.2263    1.8478    0.9547 H   0  0  0  0  0  0
   -0.4519   -0.6280    0.7424 H   0  0  0  0  0  0
   -0.4588   -0.4740   -1.0245 H   0  0  0  0  0  0
    1.8727    0.4287   -0.9181 H   0  0  0  0  0  0
    1.7941    0.3981    0.8541 H   0  0  0  0  0  0
    1.9084   -1.9480   -2.1656 H   0  0  0  0  0  0
    0.5053   -2.5085   -1.2314 H   0  0  0  0  0  0
    2.0256   -3.3896   -1.1074 H   0  0  0  0  0  0
    3.9535   -1.0059   -0.9762 H   0  0  0  0  0  0
    4.0076   -2.4435    0.0866 H   0  0  0  0  0  0
    3.9473   -0.8187    0.7912 H   0  0  0  0  0  0
  1  2  1  0  0  0
  1 13  1  0  0  0
  1 14  1  0  0  0
  1 15  1  0  0  0
  2  3  1  0  0  0
  2 16  1  0  0  0
  2 17  1  0  0  0
  3  4  1  0  0  0
  3 18  1  0  0  0
  3 19  1  0  0  0
  4  5  1  0  0  0
  4 20  1  0  0  0
  4 21  1  0  0  0
  5  6  1  0  0  0
  5 22  1  0  0  0
  5 23  1  0  0  0
  6  7  1  0  0  0
  6 24  1  0  0  0
  6 25  1  0  0  0
  7  8  1  0  0  0
  7  9  1  0  0  0
  7 10  1  0  0  0
  8 26  1  0  0  0
  8 27  1  0  0  0
  8 28  1  0  0  0
  9 29  1  0  0  0
  9 30  1  0  0  0
  9 31  1  0  0  0
 10 11  2  0  0  0
 10 12  1  0  0  0
M  END
>  <i_m_Spin_multiplicity> (1)
1

>  <s_j_Task> (1)
Single Point

>  <s_j_QM_Method> (1)
DFT(b3lyp-d3)

>  <s_j_QM_Basis> (1)
cc-pvtz(-f)

>  <i_j_Number_of_canonical_orbitals> (1)
444

>  <i_j_Geometry_convergence_category> (1)
0

>  <r_j_Gas_Phase_Energy> (1)
-543.25084635017

>  <r_j_Final_Energy> (1)
-543.25084635017

>  <r_j_HOMO> (1)
-0.0588963392056256

>  <r_j_LUMO> (1)
0.129411502637062

>  <r_j_Polarizability> (1)
134.148534977725

>  <r_j_QM_Dipole_(debye)> (1)
11.2531341579091

>  <r_j_QM_Dipole_X_(debye)> (1)
-5.1700005230599

>  <r_j_QM_Dipole_Y_(debye)> (1)
8.59323416906331

>  <r_j_QM_Dipole_Z_(debye)> (1)
-5.10494363172647

>  <r_j_Lowest_Frequency_(cm-1)> (1)
55.8220261295908

>  <r_j_Highest_Frequency_(cm-1)> (1)
3064.89653333135

>  <r_j_2nd_Lowest_Frequency_(cm-1)> (1)
83.5670566011419

>  <i_j_Num_Negative_Frequencies> (1)
0

>  <r_j_Zero_Point_Energy_(kcal/mol)> (1)
172.38918292992

>  <r_j_Entropy_(cal/mol/K)_298.15K_1.00E+00atm> (1)
113.511411047088

>  <r_j_Enthalpy_(kcal/mol)_298.15K_1.00E+00atm> (1)
9.18675681017022

>  <r_j_Free_Energy_(kcal/mol)_298.15K_1.00E+00atm> (1)
-24.656670393519

>  <r_j_Internal_Energy_(kcal/mol)_298.15K_1.00E+00atm> (1)
8.59427122134295

>  <r_j_Heat_Capacity_(cal/mol/K)_298.15K_1.00E+00atm> (1)
52.2362817108447

>  <r_j_ln(Q)_298.15K_1.00E+00atm> (1)
41.6156457785289

>  <r_j_Total_Internal_Energy_(au)_298.15K_1.00E+00atm> (1)
-542.962430855578

>  <r_j_Total_Enthalpy_(au)_298.15K_1.00E+00atm> (1)
-542.961486669685

>  <r_j_Total_Free_Energy_(au)_298.15K_1.00E+00atm> (1)
-543.015419604281

>  <r_epik_Ionization_Penalty> (1)
  0.0044

>  <r_epik_Ionization_Penalty_Charging> (1)
  0.0044

>  <r_epik_Ionization_Penalty_Neutral> (1)
  0.0000

>  <r_epik_State_Penalty> (1)
  0.0032

>  <r_epik_Charging_Adjusted_Penalty> (1)
0.00765305233700537

>  <i_epik_Tot_Q> (1)
-1

>  <i_epik_Tot_abs_Q> (1)
1

>  <s_lp_Force_Field> (1)
S-OPLS

>  <r_lp_Energy> (1)
14.95949

>  <b_lp_Chiralities_Consistent> (1)
1

$$$$
