6323_Methyl bromide
                    3D
 Schrodinger Suite 2021-3.
  5  4  0  0  1  0            999 V2000
    0.8648    0.9167    0.5402 C   0  0  0  0  0  0
    1.3439    1.7983    2.2353 Br  0  0  0  0  0  0
   -0.2157    0.7878    0.5259 H   0  0  0  0  0  0
    1.1931    1.5598   -0.2740 H   0  0  0  0  0  0
    1.3741   -0.0446    0.5094 H   0  0  0  0  0  0
  1  2  1  0  0  0
  1  3  1  0  0  0
  1  4  1  0  0  0
  1  5  1  0  0  0
M  END
>  <i_m_Spin_multiplicity> (1)
1

>  <s_j_Task> (1)
Single Point

>  <s_j_QM_Method> (1)
DFT(b3lyp-d3)

>  <s_j_QM_Basis> (1)
cc-pvtz(-f)

>  <i_j_Number_of_canonical_orbitals> (1)
86

>  <i_j_Geometry_convergence_category> (1)
0

>  <r_j_Gas_Phase_Energy> (1)
-2614.15993278567

>  <r_j_Final_Energy> (1)
-2614.15993278567

>  <r_j_HOMO> (1)
-0.283514537944422

>  <r_j_LUMO> (1)
-0.0205339484450722

>  <r_j_Polarizability> (1)
30.9027846413012

>  <r_j_QM_Dipole_(debye)> (1)
1.93922716925346

>  <r_j_QM_Dipole_X_(debye)> (1)
-0.471706488452721

>  <r_j_QM_Dipole_Y_(debye)> (1)
-0.867898261786991

>  <r_j_QM_Dipole_Z_(debye)> (1)
-1.66878626849262

>  <r_j_Lowest_Frequency_(cm-1)> (1)
-305.869551611888

>  <r_j_Highest_Frequency_(cm-1)> (1)
3140.17537923377

>  <r_j_2nd_Lowest_Frequency_(cm-1)> (1)
980.128712263521

>  <i_j_Num_Negative_Frequencies> (1)
1

>  <r_j_Zero_Point_Energy_(kcal/mol)> (1)
22.2966295739782

>  <r_j_Entropy_(cal/mol/K)_298.15K_1.00E+00atm> (1)
60.4851897002191

>  <r_j_Enthalpy_(kcal/mol)_298.15K_1.00E+00atm> (1)
2.43229241250205

>  <r_j_Free_Energy_(kcal/mol)_298.15K_1.00E+00atm> (1)
-15.6013668966183

>  <r_j_Internal_Energy_(kcal/mol)_298.15K_1.00E+00atm> (1)
1.83980682367477

>  <r_j_Heat_Capacity_(cal/mol/K)_298.15K_1.00E+00atm> (1)
7.04659940841379

>  <r_j_ln(Q)_298.15K_1.00E+00atm> (1)
26.332061388191

>  <r_j_Total_Internal_Energy_(au)_298.15K_1.00E+00atm> (1)
-2614.12146892568

>  <r_j_Total_Enthalpy_(au)_298.15K_1.00E+00atm> (1)
-2614.12052473979

>  <r_j_Total_Free_Energy_(au)_298.15K_1.00E+00atm> (1)
-2614.14926320538

>  <r_lp_tautomer_probability> (1)
1

>  <r_epik_Ionization_Penalty> (1)
  0.0000

>  <r_epik_Ionization_Penalty_Charging> (1)
  0.0000

>  <r_epik_Ionization_Penalty_Neutral> (1)
  0.0000

>  <r_epik_State_Penalty> (1)
  0.0000

>  <r_epik_Charging_Adjusted_Penalty> (1)
0

>  <i_epik_Tot_Q> (1)
0

>  <i_epik_Tot_abs_Q> (1)
0

>  <s_lp_Force_Field> (1)
S-OPLS

>  <r_lp_Energy> (1)
0.229187

>  <b_lp_Chiralities_Consistent> (1)
1

$$$$
