6324_Ethane
                    3D
 Schrodinger Suite 2021-3.
  8  7  0  0  1  0            999 V2000
   -0.0154    0.0000    0.0000 C   0  0  0  0  0  0
    1.5154    0.0000    0.0000 C   0  0  0  0  0  0
   -0.4137    1.0205    0.0000 H   0  0  0  0  0  0
   -0.4136   -0.5102    0.8837 H   0  0  0  0  0  0
   -0.4136   -0.5101   -0.8837 H   0  0  0  0  0  0
    1.9137   -1.0205    0.0000 H   0  0  0  0  0  0
    1.9136    0.5102    0.8837 H   0  0  0  0  0  0
    1.9136    0.5102   -0.8837 H   0  0  0  0  0  0
  1  2  1  0  0  0
  1  3  1  0  0  0
  1  4  1  0  0  0
  1  5  1  0  0  0
  2  6  1  0  0  0
  2  7  1  0  0  0
  2  8  1  0  0  0
M  END
>  <i_m_Spin_multiplicity> (1)
1

>  <s_j_Task> (1)
Single Point

>  <s_j_QM_Method> (1)
DFT(b3lyp-d3)

>  <s_j_QM_Basis> (1)
cc-pvtz(-f)

>  <i_j_Number_of_canonical_orbitals> (1)
100

>  <i_j_Geometry_convergence_category> (1)
0

>  <r_j_Gas_Phase_Energy> (1)
-79.864414415303

>  <r_j_Final_Energy> (1)
-79.864414415303

>  <r_j_HOMO> (1)
-0.345347025669785

>  <r_j_LUMO> (1)
0.0377700432324727

>  <r_j_Polarizability> (1)
27.3979053888227

>  <r_j_QM_Dipole_(debye)> (1)
7.21497799237487e-05

>  <r_j_QM_Dipole_X_(debye)> (1)
-3.01149707700608e-05

>  <r_j_QM_Dipole_Y_(debye)> (1)
1.02018106180851e-05

>  <r_j_QM_Dipole_Z_(debye)> (1)
-6.47657497345355e-05

>  <r_j_Lowest_Frequency_(cm-1)> (1)
366.312243369078

>  <r_j_Highest_Frequency_(cm-1)> (1)
3056.82287319664

>  <r_j_2nd_Lowest_Frequency_(cm-1)> (1)
853.902080622022

>  <i_j_Num_Negative_Frequencies> (1)
0

>  <r_j_Zero_Point_Energy_(kcal/mol)> (1)
46.6061472297728

>  <r_j_Entropy_(cal/mol/K)_298.15K_1.00E+00atm> (1)
54.1040505876739

>  <r_j_Enthalpy_(kcal/mol)_298.15K_1.00E+00atm> (1)
2.72884054301778

>  <r_j_Free_Energy_(kcal/mol)_298.15K_1.00E+00atm> (1)
-13.4022821396972

>  <r_j_Internal_Energy_(kcal/mol)_298.15K_1.00E+00atm> (1)
2.1363549541905

>  <r_j_Heat_Capacity_(cal/mol/K)_298.15K_1.00E+00atm> (1)
9.87372381230283

>  <r_j_ln(Q)_298.15K_1.00E+00atm> (1)
22.620435656882

>  <r_j_Total_Internal_Energy_(au)_298.15K_1.00E+00atm> (1)
-79.7867382932455

>  <r_j_Total_Enthalpy_(au)_298.15K_1.00E+00atm> (1)
-79.7857941073533

>  <r_j_Total_Free_Energy_(au)_298.15K_1.00E+00atm> (1)
-79.8115006878176

>  <r_lp_tautomer_probability> (1)
1

>  <r_epik_Ionization_Penalty> (1)
  0.0000

>  <r_epik_Ionization_Penalty_Charging> (1)
  0.0000

>  <r_epik_Ionization_Penalty_Neutral> (1)
  0.0000

>  <r_epik_State_Penalty> (1)
  0.0000

>  <r_epik_Charging_Adjusted_Penalty> (1)
0

>  <i_epik_Tot_Q> (1)
0

>  <i_epik_Tot_abs_Q> (1)
0

>  <s_lp_Force_Field> (1)
S-OPLS

>  <r_lp_Energy> (1)
0.229589

>  <b_lp_Chiralities_Consistent> (1)
1

$$$$
