6327_Methyl chloride
                    3D
 Schrodinger Suite 2021-3.
  5  4  0  0  1  0            999 V2000
    0.7836    0.8648    0.4983 C   0  0  0  0  0  0
    1.2034    1.6711    2.0581 Cl  0  0  0  0  0  0
   -0.2945    0.7084    0.4689 H   0  0  0  0  0  0
    1.0963    1.5121   -0.3206 H   0  0  0  0  0  0
    1.3076   -0.0895    0.4499 H   0  0  0  0  0  0
  1  2  1  0  0  0
  1  3  1  0  0  0
  1  4  1  0  0  0
  1  5  1  0  0  0
M  END
>  <i_m_Spin_multiplicity> (1)
1

>  <s_j_Task> (1)
Single Point

>  <s_j_QM_Method> (1)
DFT(b3lyp-d3)

>  <s_j_QM_Basis> (1)
cc-pvtz(-f)

>  <i_j_Number_of_canonical_orbitals> (1)
77

>  <i_j_Geometry_convergence_category> (1)
0

>  <r_j_Gas_Phase_Energy> (1)
-500.163130816242

>  <r_j_Final_Energy> (1)
-500.163130816242

>  <r_j_HOMO> (1)
-0.300950998602029

>  <r_j_LUMO> (1)
0.00766323673078094

>  <r_j_Polarizability> (1)
24.7865825586033

>  <r_j_QM_Dipole_(debye)> (1)
1.97317208552175

>  <r_j_QM_Dipole_X_(debye)> (1)
-0.458789935297822

>  <r_j_QM_Dipole_Y_(debye)> (1)
-0.881206385076674

>  <r_j_QM_Dipole_Z_(debye)> (1)
-1.70481529241492

>  <r_j_Lowest_Frequency_(cm-1)> (1)
706.413623070733

>  <r_j_Highest_Frequency_(cm-1)> (1)
3118.55313852594

>  <r_j_2nd_Lowest_Frequency_(cm-1)> (1)
1038.38849057618

>  <i_j_Num_Negative_Frequencies> (1)
0

>  <r_j_Zero_Point_Energy_(kcal/mol)> (1)
23.4840847023423

>  <r_j_Entropy_(cal/mol/K)_298.15K_1.00E+00atm> (1)
58.1871621786455

>  <r_j_Enthalpy_(kcal/mol)_298.15K_1.00E+00atm> (1)
2.49004823600781

>  <r_j_Free_Energy_(kcal/mol)_298.15K_1.00E+00atm> (1)
-14.8584541675554

>  <r_j_Internal_Energy_(kcal/mol)_298.15K_1.00E+00atm> (1)
1.89756264718053

>  <r_j_Heat_Capacity_(cal/mol/K)_298.15K_1.00E+00atm> (1)
7.71536072018943

>  <r_j_ln(Q)_298.15K_1.00E+00atm> (1)
25.0781697441201

>  <r_j_Total_Internal_Energy_(au)_298.15K_1.00E+00atm> (1)
-500.122682586274

>  <r_j_Total_Enthalpy_(au)_298.15K_1.00E+00atm> (1)
-500.121738400382

>  <r_j_Total_Free_Energy_(au)_298.15K_1.00E+00atm> (1)
-500.149384998932

>  <r_lp_tautomer_probability> (1)
1

>  <r_epik_Ionization_Penalty> (1)
  0.0000

>  <r_epik_Ionization_Penalty_Charging> (1)
  0.0000

>  <r_epik_Ionization_Penalty_Neutral> (1)
  0.0000

>  <r_epik_State_Penalty> (1)
  0.0000

>  <r_epik_Charging_Adjusted_Penalty> (1)
0

>  <i_epik_Tot_Q> (1)
0

>  <i_epik_Tot_abs_Q> (1)
0

>  <s_lp_Force_Field> (1)
S-OPLS

>  <r_lp_Energy> (1)
0.229187

>  <b_lp_Chiralities_Consistent> (1)
1

$$$$
