6333_Bromochloromethane
                    3D
 Schrodinger Suite 2021-3.
  5  4  0  0  1  0            999 V2000
    0.4300    0.3180    0.8524 C   0  0  0  0  0  0
   -0.7944   -0.8884    0.3691 Cl  0  0  0  0  0  0
    0.8945    1.5944   -0.5696 Br  0  0  0  0  0  0
    0.0370    0.8998    1.6822 H   0  0  0  0  0  0
    1.3457   -0.2031    1.1197 H   0  0  0  0  0  0
  1  2  1  0  0  0
  1  3  1  0  0  0
  1  4  1  0  0  0
  1  5  1  0  0  0
M  END
>  <i_m_Spin_multiplicity> (1)
1

>  <s_j_Task> (1)
Single Point

>  <s_j_QM_Method> (1)
DFT(b3lyp-d3)

>  <s_j_QM_Basis> (1)
cc-pvtz(-f)

>  <i_j_Number_of_canonical_orbitals> (1)
104

>  <i_j_Geometry_convergence_category> (1)
0

>  <r_j_Gas_Phase_Energy> (1)
-3073.78267180464

>  <r_j_Final_Energy> (1)
-3073.78267180464

>  <r_j_HOMO> (1)
-0.290174241816302

>  <r_j_LUMO> (1)
-0.0435316744696553

>  <r_j_Polarizability> (1)
42.5413843862541

>  <r_j_QM_Dipole_(debye)> (1)
1.61474253134562

>  <r_j_QM_Dipole_X_(debye)> (1)
0.646521799870132

>  <r_j_QM_Dipole_Y_(debye)> (1)
0.0125182611230106

>  <r_j_QM_Dipole_Z_(debye)> (1)
1.47961018446333

>  <r_j_Lowest_Frequency_(cm-1)> (1)
-823.488120225547

>  <r_j_Highest_Frequency_(cm-1)> (1)
3152.51578819244

>  <r_j_2nd_Lowest_Frequency_(cm-1)> (1)
557.732582724687

>  <i_j_Num_Negative_Frequencies> (1)
1

>  <r_j_Zero_Point_Energy_(kcal/mol)> (1)
17.521744362656

>  <r_j_Entropy_(cal/mol/K)_298.15K_1.00E+00atm> (1)
66.9619297659915

>  <r_j_Enthalpy_(kcal/mol)_298.15K_1.00E+00atm> (1)
2.61626890902593

>  <r_j_Free_Energy_(kcal/mol)_298.15K_1.00E+00atm> (1)
-17.3484304507044

>  <r_j_Internal_Energy_(kcal/mol)_298.15K_1.00E+00atm> (1)
2.02378332019866

>  <r_j_Heat_Capacity_(cal/mol/K)_298.15K_1.00E+00atm> (1)
8.92069237348472

>  <r_j_ln(Q)_298.15K_1.00E+00atm> (1)
29.2807635794868

>  <r_j_Total_Internal_Energy_(au)_298.15K_1.00E+00atm> (1)
-3073.75152402343

>  <r_j_Total_Enthalpy_(au)_298.15K_1.00E+00atm> (1)
-3073.75057983753

>  <r_j_Total_Free_Energy_(au)_298.15K_1.00E+00atm> (1)
-3073.78239561134

>  <r_lp_tautomer_probability> (1)
1

>  <r_epik_Ionization_Penalty> (1)
  0.0000

>  <r_epik_Ionization_Penalty_Charging> (1)
  0.0000

>  <r_epik_Ionization_Penalty_Neutral> (1)
  0.0000

>  <r_epik_State_Penalty> (1)
  0.0000

>  <r_epik_Charging_Adjusted_Penalty> (1)
0

>  <i_epik_Tot_Q> (1)
0

>  <i_epik_Tot_abs_Q> (1)
0

>  <s_lp_Force_Field> (1)
S-OPLS

>  <r_lp_Energy> (1)
0.13936

>  <b_lp_Chiralities_Consistent> (1)
1

$$$$
