6334_Propane
                    3D
 Schrodinger Suite 2021-3.
 11 10  0  0  1  0            999 V2000
   -0.0389    0.0322    0.0000 C   0  0  0  0  0  0
    1.4926   -0.0104    0.0000 C   0  0  0  0  0  0
    2.0433   -1.4402    0.0000 C   0  0  0  0  0  0
   -0.4143    1.0610    0.0000 H   0  0  0  0  0  0
   -0.4462   -0.4726    0.8839 H   0  0  0  0  0  0
   -0.4462   -0.4726   -0.8839 H   0  0  0  0  0  0
    1.8735    0.5283   -0.8774 H   0  0  0  0  0  0
    1.8735    0.5283    0.8774 H   0  0  0  0  0  0
    3.1384   -1.4512    0.0000 H   0  0  0  0  0  0
    1.7031   -1.9924   -0.8839 H   0  0  0  0  0  0
    1.7031   -1.9924    0.8839 H   0  0  0  0  0  0
  1  2  1  0  0  0
  1  4  1  0  0  0
  1  5  1  0  0  0
  1  6  1  0  0  0
  2  3  1  0  0  0
  2  7  1  0  0  0
  2  8  1  0  0  0
  3  9  1  0  0  0
  3 10  1  0  0  0
  3 11  1  0  0  0
M  END
>  <i_m_Spin_multiplicity> (1)
1

>  <s_j_Task> (1)
Single Point

>  <s_j_QM_Method> (1)
DFT(b3lyp-d3)

>  <s_j_QM_Basis> (1)
cc-pvtz(-f)

>  <i_j_Number_of_canonical_orbitals> (1)
141

>  <i_j_Geometry_convergence_category> (1)
0

>  <r_j_Gas_Phase_Energy> (1)
-119.193906592033

>  <r_j_Final_Energy> (1)
-119.193906592033

>  <r_j_HOMO> (1)
-0.331917303859369

>  <r_j_LUMO> (1)
0.0320005674702864

>  <r_j_Polarizability> (1)
39.495161635022

>  <r_j_QM_Dipole_(debye)> (1)
0.0826174098477742

>  <r_j_QM_Dipole_X_(debye)> (1)
0.0476683198584392

>  <r_j_QM_Dipole_Y_(debye)> (1)
0.0674786461244207

>  <r_j_QM_Dipole_Z_(debye)> (1)
3.00729813135096e-06

>  <r_j_Lowest_Frequency_(cm-1)> (1)
293.934810108459

>  <r_j_Highest_Frequency_(cm-1)> (1)
3046.75941668229

>  <r_j_2nd_Lowest_Frequency_(cm-1)> (1)
327.774381637344

>  <i_j_Num_Negative_Frequencies> (1)
0

>  <r_j_Zero_Point_Energy_(kcal/mol)> (1)
64.6664626450829

>  <r_j_Entropy_(cal/mol/K)_298.15K_1.00E+00atm> (1)
63.2220211739273

>  <r_j_Enthalpy_(kcal/mol)_298.15K_1.00E+00atm> (1)
3.30450852097227

>  <r_j_Free_Energy_(kcal/mol)_298.15K_1.00E+00atm> (1)
-15.5451370920341

>  <r_j_Internal_Energy_(kcal/mol)_298.15K_1.00E+00atm> (1)
2.712022932145

>  <r_j_Heat_Capacity_(cal/mol/K)_298.15K_1.00E+00atm> (1)
14.4047703987749

>  <r_j_ln(Q)_298.15K_1.00E+00atm> (1)
26.2371564560804

>  <r_j_Total_Internal_Energy_(au)_298.15K_1.00E+00atm> (1)
-119.086532139855

>  <r_j_Total_Enthalpy_(au)_298.15K_1.00E+00atm> (1)
-119.085587953963

>  <r_j_Total_Free_Energy_(au)_298.15K_1.00E+00atm> (1)
-119.115626776506

>  <r_lp_tautomer_probability> (1)
1

>  <r_epik_Ionization_Penalty> (1)
  0.0000

>  <r_epik_Ionization_Penalty_Charging> (1)
  0.0000

>  <r_epik_Ionization_Penalty_Neutral> (1)
  0.0000

>  <r_epik_State_Penalty> (1)
  0.0000

>  <r_epik_Charging_Adjusted_Penalty> (1)
0

>  <i_epik_Tot_Q> (1)
0

>  <i_epik_Tot_abs_Q> (1)
0

>  <s_lp_Force_Field> (1)
S-OPLS

>  <r_lp_Energy> (1)
0.329193

>  <b_lp_Chiralities_Consistent> (1)
1

$$$$
