6335_1-propyne
                    3D
 Schrodinger Suite 2021-3.
  7  6  0  0  1  0            999 V2000
    0.0287    0.0011   -0.0003 C   0  0  0  0  0  0
    1.4879    0.0003    0.0002 C   0  0  0  0  0  0
    2.6952   -0.0042    0.0002 C   0  0  0  0  0  0
   -0.3653    1.0234   -0.0004 H   0  0  0  0  0  0
   -0.3657   -0.5100    0.8849 H   0  0  0  0  0  0
   -0.3651   -0.5100   -0.8857 H   0  0  0  0  0  0
    3.7605   -0.0053    0.0008 H   0  0  0  0  0  0
  1  2  1  0  0  0
  1  4  1  0  0  0
  1  5  1  0  0  0
  1  6  1  0  0  0
  2  3  3  0  0  0
  3  7  1  0  0  0
M  END
>  <i_m_Spin_multiplicity> (1)
1

>  <s_j_Task> (1)
Single Point

>  <s_j_QM_Method> (1)
DFT(b3lyp-d3)

>  <s_j_QM_Basis> (1)
cc-pvtz(-f)

>  <i_j_Number_of_canonical_orbitals> (1)
104

>  <i_j_Geometry_convergence_category> (1)
0

>  <r_j_Gas_Phase_Energy> (1)
-116.700547025724

>  <r_j_Final_Energy> (1)
-116.700547025724

>  <r_j_HOMO> (1)
-0.272755095578848

>  <r_j_LUMO> (1)
0.0367281758618265

>  <r_j_Polarizability> (1)
32.7228878756658

>  <r_j_QM_Dipole_(debye)> (1)
0.817554854280984

>  <r_j_QM_Dipole_X_(debye)> (1)
-0.817554664611434

>  <r_j_QM_Dipole_Y_(debye)> (1)
0.000416591378884801

>  <r_j_QM_Dipole_Z_(debye)> (1)
0.000369570169033008

>  <r_j_Lowest_Frequency_(cm-1)> (1)
378.635564301988

>  <r_j_Highest_Frequency_(cm-1)> (1)
3421.45146447821

>  <r_j_2nd_Lowest_Frequency_(cm-1)> (1)
378.937967931928

>  <i_j_Num_Negative_Frequencies> (1)
0

>  <r_j_Zero_Point_Energy_(kcal/mol)> (1)
34.6995688967661

>  <r_j_Entropy_(cal/mol/K)_298.15K_1.00E+00atm> (1)
60.8722161357237

>  <r_j_Enthalpy_(kcal/mol)_298.15K_1.00E+00atm> (1)
3.00826122734496

>  <r_j_Free_Energy_(kcal/mol)_298.15K_1.00E+00atm> (1)
-15.1407900135211

>  <r_j_Internal_Energy_(kcal/mol)_298.15K_1.00E+00atm> (1)
2.41577563851768

>  <r_j_Heat_Capacity_(cal/mol/K)_298.15K_1.00E+00atm> (1)
12.0327218325341

>  <r_j_ln(Q)_298.15K_1.00E+00atm> (1)
25.5546975302635

>  <r_j_Total_Internal_Energy_(au)_298.15K_1.00E+00atm> (1)
-116.641399958931

>  <r_j_Total_Enthalpy_(au)_298.15K_1.00E+00atm> (1)
-116.640455773038

>  <r_j_Total_Free_Energy_(au)_298.15K_1.00E+00atm> (1)
-116.669378127375

>  <r_lp_tautomer_probability> (1)
1

>  <r_epik_Ionization_Penalty> (1)
  0.0000

>  <r_epik_Ionization_Penalty_Charging> (1)
  0.0000

>  <r_epik_Ionization_Penalty_Neutral> (1)
  0.0000

>  <r_epik_State_Penalty> (1)
  0.0000

>  <r_epik_Charging_Adjusted_Penalty> (1)
0

>  <i_epik_Tot_Q> (1)
0

>  <i_epik_Tot_abs_Q> (1)
0

>  <s_lp_Force_Field> (1)
S-OPLS

>  <r_lp_Energy> (1)
-0.33701

>  <b_lp_Chiralities_Consistent> (1)
1

$$$$
