6341_Ethylamine
                    3D
 Schrodinger Suite 2021-3.
 11 10  0  0  1  0            999 V2000
   -0.0406    0.0152    0.0000 C   0  0  0  0  0  0
    1.4778    0.0373    0.0000 C   0  0  0  0  0  0
    2.0318   -1.3932    0.0001 N   0  3  1  0  0  0
   -0.4026    1.0466    0.0003 H   0  0  0  0  0  0
   -0.4419   -0.4750    0.8925 H   0  0  0  0  0  0
   -0.4419   -0.4745   -0.8928 H   0  0  0  0  0  0
    1.8932    0.5164   -0.8889 H   0  0  0  0  0  0
    1.8933    0.5165    0.8888 H   0  0  0  0  0  0
    3.0578   -1.4089    0.0000 H   0  0  0  0  0  0
    1.7109   -1.9108   -0.8262 H   0  0  0  0  0  0
    1.7110   -1.9107    0.8264 H   0  0  0  0  0  0
  1  2  1  0  0  0
  1  4  1  0  0  0
  1  5  1  0  0  0
  1  6  1  0  0  0
  2  3  1  0  0  0
  2  7  1  0  0  0
  2  8  1  0  0  0
  3  9  1  0  0  0
  3 10  1  0  0  0
  3 11  1  0  0  0
M  END
>  <i_m_Spin_multiplicity> (1)
1

>  <s_j_Task> (1)
Single Point

>  <s_j_QM_Method> (1)
DFT(b3lyp-d3)

>  <s_j_QM_Basis> (1)
cc-pvtz(-f)

>  <i_j_Number_of_canonical_orbitals> (1)
141

>  <i_j_Geometry_convergence_category> (1)
0

>  <r_j_Gas_Phase_Energy> (1)
-135.595522535851

>  <r_j_Final_Energy> (1)
-135.595522535851

>  <r_j_HOMO> (1)
-0.556305889780011

>  <r_j_LUMO> (1)
-0.206166443062624

>  <r_j_Polarizability> (1)
31.5723587262459

>  <r_j_QM_Dipole_(debye)> (1)
3.79812210024555

>  <r_j_QM_Dipole_X_(debye)> (1)
2.692996500799

>  <r_j_QM_Dipole_Y_(debye)> (1)
-2.67833928675231

>  <r_j_QM_Dipole_Z_(debye)> (1)
-9.85454994525148e-06

>  <r_j_Lowest_Frequency_(cm-1)> (1)
292.230284787688

>  <r_j_Highest_Frequency_(cm-1)> (1)
3433.75209126989

>  <r_j_2nd_Lowest_Frequency_(cm-1)> (1)
320.208394822999

>  <i_j_Num_Negative_Frequencies> (1)
0

>  <r_j_Zero_Point_Energy_(kcal/mol)> (1)
67.4296402392483

>  <r_j_Entropy_(cal/mol/K)_298.15K_1.00E+00atm> (1)
64.7828078418433

>  <r_j_Enthalpy_(kcal/mol)_298.15K_1.00E+00atm> (1)
3.30479707439466

>  <r_j_Free_Energy_(kcal/mol)_298.15K_1.00E+00atm> (1)
-16.0101970836509

>  <r_j_Internal_Energy_(kcal/mol)_298.15K_1.00E+00atm> (1)
2.71231148556739

>  <r_j_Heat_Capacity_(cal/mol/K)_298.15K_1.00E+00atm> (1)
14.31346044758

>  <r_j_ln(Q)_298.15K_1.00E+00atm> (1)
27.0220869259291

>  <r_j_Total_Internal_Energy_(au)_298.15K_1.00E+00atm> (1)
-135.48374422002

>  <r_j_Total_Enthalpy_(au)_298.15K_1.00E+00atm> (1)
-135.482800034127

>  <r_j_Total_Free_Energy_(au)_298.15K_1.00E+00atm> (1)
-135.513580436785

>  <r_epik_Ionization_Penalty> (1)
  0.0005

>  <r_epik_Ionization_Penalty_Charging> (1)
  0.0005

>  <r_epik_Ionization_Penalty_Neutral> (1)
  0.0000

>  <r_epik_State_Penalty> (1)
  0.0003

>  <r_epik_Charging_Adjusted_Penalty> (1)
0.000831721

>  <i_epik_Tot_Q> (1)
1

>  <i_epik_Tot_abs_Q> (1)
1

>  <s_lp_Force_Field> (1)
S-OPLS

>  <r_lp_Energy> (1)
4.49276

>  <b_lp_Chiralities_Consistent> (1)
1

$$$$
