6343_Ethyl mercaptan
                    3D
 Schrodinger Suite 2021-3.
  9  8  0  0  1  0            999 V2000
   -0.0312    0.0100    0.0000 C   0  0  0  0  0  0
    1.4966    0.0380    0.0000 C   0  0  0  0  0  0
    2.1495   -1.6935    0.0000 S   0  0  0  0  0  0
   -0.4213    1.0331    0.0000 H   0  0  0  0  0  0
   -0.4198   -0.5006    0.8864 H   0  0  0  0  0  0
   -0.4198   -0.5006   -0.8864 H   0  0  0  0  0  0
    1.8699    0.5563   -0.8874 H   0  0  0  0  0  0
    1.8699    0.5563    0.8874 H   0  0  0  0  0  0
    3.4604   -1.3785    0.0000 H   0  0  0  0  0  0
  1  2  1  0  0  0
  1  4  1  0  0  0
  1  5  1  0  0  0
  1  6  1  0  0  0
  2  3  1  0  0  0
  2  7  1  0  0  0
  2  8  1  0  0  0
  3  9  1  0  0  0
M  END
>  <i_m_Spin_multiplicity> (1)
1

>  <s_j_Task> (1)
Single Point

>  <s_j_QM_Method> (1)
DFT(b3lyp-d3)

>  <s_j_QM_Basis> (1)
cc-pvtz(-f)

>  <i_j_Number_of_canonical_orbitals> (1)
127

>  <i_j_Geometry_convergence_category> (1)
0

>  <r_j_Gas_Phase_Energy> (1)
-478.084423483988

>  <r_j_Final_Energy> (1)
-478.084423483988

>  <r_j_HOMO> (1)
-0.24472062491297

>  <r_j_LUMO> (1)
0.00261472847759919

>  <r_j_Polarizability> (1)
44.3307224526451

>  <r_j_QM_Dipole_(debye)> (1)
1.63702470122715

>  <r_j_QM_Dipole_X_(debye)> (1)
0.0385147557769089

>  <r_j_QM_Dipole_Y_(debye)> (1)
1.63657156458713

>  <r_j_QM_Dipole_Z_(debye)> (1)
-3.27206858601751e-07

>  <r_j_Lowest_Frequency_(cm-1)> (1)
222.183538432049

>  <r_j_Highest_Frequency_(cm-1)> (1)
3070.99492737555

>  <r_j_2nd_Lowest_Frequency_(cm-1)> (1)
310.880998559724

>  <i_j_Num_Negative_Frequencies> (1)
0

>  <r_j_Zero_Point_Energy_(kcal/mol)> (1)
46.7795709345416

>  <r_j_Entropy_(cal/mol/K)_298.15K_1.00E+00atm> (1)
67.5978913631164

>  <r_j_Enthalpy_(kcal/mol)_298.15K_1.00E+00atm> (1)
3.46157676342592

>  <r_j_Free_Energy_(kcal/mol)_298.15K_1.00E+00atm> (1)
-16.6927345464872

>  <r_j_Internal_Energy_(kcal/mol)_298.15K_1.00E+00atm> (1)
2.86909117459864

>  <r_j_Heat_Capacity_(cal/mol/K)_298.15K_1.00E+00atm> (1)
14.7509558681457

>  <r_j_ln(Q)_298.15K_1.00E+00atm> (1)
28.1740769079763

>  <r_j_Total_Internal_Energy_(au)_298.15K_1.00E+00atm> (1)
-478.005303304161

>  <r_j_Total_Enthalpy_(au)_298.15K_1.00E+00atm> (1)
-478.004359118269

>  <r_j_Total_Free_Energy_(au)_298.15K_1.00E+00atm> (1)
-478.036477057955

>  <r_epik_Ionization_Penalty> (1)
  0.0012

>  <r_epik_Ionization_Penalty_Charging> (1)
  0.0000

>  <r_epik_Ionization_Penalty_Neutral> (1)
  0.0012

>  <r_epik_State_Penalty> (1)
  0.0008

>  <r_epik_Charging_Adjusted_Penalty> (1)
0.000778531

>  <i_epik_Tot_Q> (1)
0

>  <i_epik_Tot_abs_Q> (1)
0

>  <s_lp_Force_Field> (1)
S-OPLS

>  <r_lp_Energy> (1)
-0.094254

>  <b_lp_Chiralities_Consistent> (1)
1

$$$$
