6359_Bromodichloromethane
                    3D
 Schrodinger Suite 2021-3.
  5  4  0  0  1  0            999 V2000
   -0.0506    0.5646    0.4566 C   0  0  0  0  0  0
   -1.1871   -0.6960   -0.0931 Cl  0  0  0  0  0  0
    0.5175    1.5799   -0.8960 Cl  0  0  0  0  0  0
    1.4577   -0.2095    1.4648 Br  0  0  0  0  0  0
   -0.5766    1.2058    1.1573 H   0  0  0  0  0  0
  1  2  1  0  0  0
  1  3  1  0  0  0
  1  4  1  0  0  0
  1  5  1  0  0  0
M  END
>  <i_m_Spin_multiplicity> (1)
1

>  <s_j_Task> (1)
Single Point

>  <s_j_QM_Method> (1)
DFT(b3lyp-d3)

>  <s_j_QM_Basis> (1)
cc-pvtz(-f)

>  <i_j_Number_of_canonical_orbitals> (1)
122

>  <i_j_Geometry_convergence_category> (1)
0

>  <r_j_Gas_Phase_Energy> (1)
-3533.40117894161

>  <r_j_Final_Energy> (1)
-3533.40117894161

>  <r_j_HOMO> (1)
-0.304858533283841

>  <r_j_LUMO> (1)
-0.0743371677603408

>  <r_j_Polarizability> (1)
54.7604589290596

>  <r_j_QM_Dipole_(debye)> (1)
1.05154184849631

>  <r_j_QM_Dipole_X_(debye)> (1)
-0.528793826734842

>  <r_j_QM_Dipole_Y_(debye)> (1)
0.627572346749768

>  <r_j_QM_Dipole_Z_(debye)> (1)
0.657472659158655

>  <r_j_Lowest_Frequency_(cm-1)> (1)
-1129.51385433094

>  <r_j_Highest_Frequency_(cm-1)> (1)
3123.80749569585

>  <r_j_2nd_Lowest_Frequency_(cm-1)> (1)
306.364276995925

>  <i_j_Num_Negative_Frequencies> (1)
1

>  <r_j_Zero_Point_Energy_(kcal/mol)> (1)
12.0559931616302

>  <r_j_Entropy_(cal/mol/K)_298.15K_1.00E+00atm> (1)
72.5215793254447

>  <r_j_Enthalpy_(kcal/mol)_298.15K_1.00E+00atm> (1)
3.01147382272657

>  <r_j_Free_Energy_(kcal/mol)_298.15K_1.00E+00atm> (1)
-18.6108350531548

>  <r_j_Internal_Energy_(kcal/mol)_298.15K_1.00E+00atm> (1)
2.4189882338993

>  <r_j_Heat_Capacity_(cal/mol/K)_298.15K_1.00E+00atm> (1)
11.8446521284619

>  <r_j_ln(Q)_298.15K_1.00E+00atm> (1)
31.4114560828252

>  <r_j_Total_Internal_Energy_(au)_298.15K_1.00E+00atm> (1)
-3533.3781115903

>  <r_j_Total_Enthalpy_(au)_298.15K_1.00E+00atm> (1)
-3533.3771674044

>  <r_j_Total_Free_Energy_(au)_298.15K_1.00E+00atm> (1)
-3533.41162474714

>  <r_lp_tautomer_probability> (1)
1

>  <r_epik_Ionization_Penalty> (1)
  0.0000

>  <r_epik_Ionization_Penalty_Charging> (1)
  0.0000

>  <r_epik_Ionization_Penalty_Neutral> (1)
  0.0000

>  <r_epik_State_Penalty> (1)
  0.0000

>  <r_epik_Charging_Adjusted_Penalty> (1)
0

>  <i_epik_Tot_Q> (1)
0

>  <i_epik_Tot_abs_Q> (1)
0

>  <s_lp_Force_Field> (1)
S-OPLS

>  <r_lp_Energy> (1)
0.004965

>  <b_lp_Chiralities_Consistent> (1)
1

$$$$
