6360_Isobutane
                    3D
 Schrodinger Suite 2021-3.
 14 13  0  0  1  0            999 V2000
    0.3285   -0.8201    1.1839 C   0  0  0  0  0  0
   -0.0340    0.1246    0.0293 C   0  0  0  0  0  0
   -0.4875    1.4921    0.5594 C   0  0  0  0  0  0
    1.1406    0.2753   -0.9476 C   0  0  0  0  0  0
    1.1678   -0.4168    1.7644 H   0  0  0  0  0  0
    0.6242   -1.8083    0.8142 H   0  0  0  0  0  0
   -0.5154   -0.9556    1.8697 H   0  0  0  0  0  0
   -0.8761   -0.3211   -0.5205 H   0  0  0  0  0  0
   -1.3450    1.3950    1.2347 H   0  0  0  0  0  0
   -0.7765    2.1622   -0.2582 H   0  0  0  0  0  0
    0.3226    1.9781    1.1177 H   0  0  0  0  0  0
    2.0087    0.7180   -0.4430 H   0  0  0  0  0  0
    0.8789    0.9248   -1.7904 H   0  0  0  0  0  0
    1.4505   -0.6945   -1.3530 H   0  0  0  0  0  0
  1  2  1  0  0  0
  1  5  1  0  0  0
  1  6  1  0  0  0
  1  7  1  0  0  0
  2  3  1  0  0  0
  2  4  1  0  0  0
  2  8  1  0  0  0
  3  9  1  0  0  0
  3 10  1  0  0  0
  3 11  1  0  0  0
  4 12  1  0  0  0
  4 13  1  0  0  0
  4 14  1  0  0  0
M  END
>  <i_m_Spin_multiplicity> (1)
1

>  <s_j_Task> (1)
Single Point

>  <s_j_QM_Method> (1)
DFT(b3lyp-d3)

>  <s_j_QM_Basis> (1)
cc-pvtz(-f)

>  <i_j_Number_of_canonical_orbitals> (1)
182

>  <i_j_Geometry_convergence_category> (1)
0

>  <r_j_Gas_Phase_Energy> (1)
-158.525016832608

>  <r_j_Final_Energy> (1)
-158.525016832608

>  <r_j_HOMO> (1)
-0.323230623552649

>  <r_j_LUMO> (1)
0.0297618696617735

>  <r_j_Polarizability> (1)
51.5719407137355

>  <r_j_QM_Dipole_(debye)> (1)
0.125979507220609

>  <r_j_QM_Dipole_X_(debye)> (1)
-0.0963500680646453

>  <r_j_QM_Dipole_Y_(debye)> (1)
-0.0511171580350397

>  <r_j_QM_Dipole_Z_(debye)> (1)
-0.063043927367404

>  <r_j_Lowest_Frequency_(cm-1)> (1)
293.212229602215

>  <r_j_Highest_Frequency_(cm-1)> (1)
3042.96024362407

>  <r_j_2nd_Lowest_Frequency_(cm-1)> (1)
323.996011834344

>  <i_j_Num_Negative_Frequencies> (1)
0

>  <r_j_Zero_Point_Energy_(kcal/mol)> (1)
82.352845501352

>  <r_j_Entropy_(cal/mol/K)_298.15K_1.00E+00atm> (1)
70.5499319216412

>  <r_j_Enthalpy_(kcal/mol)_298.15K_1.00E+00atm> (1)
3.94975332539371

>  <r_j_Free_Energy_(kcal/mol)_298.15K_1.00E+00atm> (1)
-17.0847088770436

>  <r_j_Internal_Energy_(kcal/mol)_298.15K_1.00E+00atm> (1)
3.35726773656644

>  <r_j_Heat_Capacity_(cal/mol/K)_298.15K_1.00E+00atm> (1)
19.5556516291866

>  <r_j_ln(Q)_298.15K_1.00E+00atm> (1)
28.8356530508361

>  <r_j_Total_Internal_Energy_(au)_298.15K_1.00E+00atm> (1)
-158.388429072047

>  <r_j_Total_Enthalpy_(au)_298.15K_1.00E+00atm> (1)
-158.387484886155

>  <r_j_Total_Free_Energy_(au)_298.15K_1.00E+00atm> (1)
-158.421005435578

>  <r_lp_tautomer_probability> (1)
1

>  <r_epik_Ionization_Penalty> (1)
  0.0000

>  <r_epik_Ionization_Penalty_Charging> (1)
  0.0000

>  <r_epik_Ionization_Penalty_Neutral> (1)
  0.0000

>  <r_epik_State_Penalty> (1)
  0.0000

>  <r_epik_Charging_Adjusted_Penalty> (1)
0

>  <i_epik_Tot_Q> (1)
0

>  <i_epik_Tot_abs_Q> (1)
0

>  <s_lp_Force_Field> (1)
S-OPLS

>  <r_lp_Energy> (1)
0.611006

>  <b_lp_Chiralities_Consistent> (1)
1

$$$$
