6365_1,1-dichloroethane
                    3D
 Schrodinger Suite 2021-3.
  8  7  0  0  1  0            999 V2000
   -0.0230    0.0064    0.0000 C   0  0  0  0  0  0
    1.4928    0.0097    0.0000 C   0  0  0  0  0  0
    2.1328    0.8173    1.4872 Cl  0  0  0  0  0  0
    2.1327    0.8174   -1.4871 Cl  0  0  0  0  0  0
   -0.4070    1.0283   -0.0001 H   0  0  0  0  0  0
   -0.3860   -0.5123    0.8913 H   0  0  0  0  0  0
   -0.3860   -0.5123   -0.8913 H   0  0  0  0  0  0
    1.9159   -0.9936    0.0000 H   0  0  0  0  0  0
  1  2  1  0  0  0
  1  5  1  0  0  0
  1  6  1  0  0  0
  1  7  1  0  0  0
  2  3  1  0  0  0
  2  4  1  0  0  0
  2  8  1  0  0  0
M  END
>  <i_m_Spin_multiplicity> (1)
1

>  <s_j_Task> (1)
Single Point

>  <s_j_QM_Method> (1)
DFT(b3lyp-d3)

>  <s_j_QM_Basis> (1)
cc-pvtz(-f)

>  <i_j_Number_of_canonical_orbitals> (1)
136

>  <i_j_Geometry_convergence_category> (1)
0

>  <r_j_Gas_Phase_Energy> (1)
-999.123509271519

>  <r_j_Final_Energy> (1)
-999.123509271519

>  <r_j_HOMO> (1)
-0.302910041187696

>  <r_j_LUMO> (1)
-0.0162771163942594

>  <r_j_Polarizability> (1)
48.9538880767557

>  <r_j_QM_Dipole_(debye)> (1)
2.13343724854825

>  <r_j_QM_Dipole_X_(debye)> (1)
-1.54230196434872

>  <r_j_QM_Dipole_Y_(debye)> (1)
-1.47406208609453

>  <r_j_QM_Dipole_Z_(debye)> (1)
-0.00033256257306713

>  <r_j_Lowest_Frequency_(cm-1)> (1)
266.691285925005

>  <r_j_Highest_Frequency_(cm-1)> (1)
3102.31930621601

>  <r_j_2nd_Lowest_Frequency_(cm-1)> (1)
313.649900376966

>  <i_j_Num_Negative_Frequencies> (1)
0

>  <r_j_Zero_Point_Energy_(kcal/mol)> (1)
35.8553722498282

>  <r_j_Entropy_(cal/mol/K)_298.15K_1.00E+00atm> (1)
72.2348026597807

>  <r_j_Enthalpy_(kcal/mol)_298.15K_1.00E+00atm> (1)
3.58757726629242

>  <r_j_Free_Energy_(kcal/mol)_298.15K_1.00E+00atm> (1)
-17.9492291467212

>  <r_j_Internal_Energy_(kcal/mol)_298.15K_1.00E+00atm> (1)
2.99509167746515

>  <r_j_Heat_Capacity_(cal/mol/K)_298.15K_1.00E+00atm> (1)
15.7691000284795

>  <r_j_ln(Q)_298.15K_1.00E+00atm> (1)
30.2947944814129

>  <r_j_Total_Internal_Energy_(au)_298.15K_1.00E+00atm> (1)
-999.06159711595

>  <r_j_Total_Enthalpy_(au)_298.15K_1.00E+00atm> (1)
-999.060652930058

>  <r_j_Total_Free_Energy_(au)_298.15K_1.00E+00atm> (1)
-999.094974015942

>  <r_lp_tautomer_probability> (1)
1

>  <r_epik_Ionization_Penalty> (1)
  0.0000

>  <r_epik_Ionization_Penalty_Charging> (1)
  0.0000

>  <r_epik_Ionization_Penalty_Neutral> (1)
  0.0000

>  <r_epik_State_Penalty> (1)
  0.0000

>  <r_epik_Charging_Adjusted_Penalty> (1)
0

>  <i_epik_Tot_Q> (1)
0

>  <i_epik_Tot_abs_Q> (1)
0

>  <s_lp_Force_Field> (1)
S-OPLS

>  <r_lp_Energy> (1)
-0.752426

>  <b_lp_Chiralities_Consistent> (1)
1

$$$$
