6368_1,1-Difluoroethane
                    3D
 Schrodinger Suite 2021-3.
  8  7  0  0  1  0            999 V2000
    0.0117   -0.0135    0.0001 C   0  0  0  0  0  0
    1.5188   -0.0260    0.0000 C   0  0  0  0  0  0
    1.9879    0.6341    1.1065 F   0  0  0  0  0  0
    1.9880    0.6339   -1.1066 F   0  0  0  0  0  0
   -0.3342    1.0230    0.0002 H   0  0  0  0  0  0
   -0.3689   -0.5194    0.8906 H   0  0  0  0  0  0
   -0.3687   -0.5191   -0.8907 H   0  0  0  0  0  0
    1.9538   -1.0340    0.0001 H   0  0  0  0  0  0
  1  2  1  0  0  0
  1  5  1  0  0  0
  1  6  1  0  0  0
  1  7  1  0  0  0
  2  3  1  0  0  0
  2  4  1  0  0  0
  2  8  1  0  0  0
M  END
>  <i_m_Spin_multiplicity> (1)
1

>  <s_j_Task> (1)
Single Point

>  <s_j_QM_Method> (1)
DFT(b3lyp-d3)

>  <s_j_QM_Basis> (1)
cc-pvtz(-f)

>  <i_j_Number_of_canonical_orbitals> (1)
128

>  <i_j_Geometry_convergence_category> (1)
0

>  <r_j_Gas_Phase_Energy> (1)
-278.41997689548

>  <r_j_Final_Energy> (1)
-278.41997689548

>  <r_j_HOMO> (1)
-0.344393375831245

>  <r_j_LUMO> (1)
0.034235901522489

>  <r_j_Polarizability> (1)
26.9032655483783

>  <r_j_QM_Dipole_(debye)> (1)
2.16273890602731

>  <r_j_QM_Dipole_X_(debye)> (1)
-1.51487841686468

>  <r_j_QM_Dipole_Y_(debye)> (1)
-1.54356173886013

>  <r_j_QM_Dipole_Z_(debye)> (1)
0.00034071815626976

>  <r_j_Lowest_Frequency_(cm-1)> (1)
286.435061745085

>  <r_j_Highest_Frequency_(cm-1)> (1)
3094.42985554055

>  <r_j_2nd_Lowest_Frequency_(cm-1)> (1)
388.547918940804

>  <i_j_Num_Negative_Frequencies> (1)
0

>  <r_j_Zero_Point_Energy_(kcal/mol)> (1)
37.72892763576

>  <r_j_Entropy_(cal/mol/K)_298.15K_1.00E+00atm> (1)
66.8787681584085

>  <r_j_Enthalpy_(kcal/mol)_298.15K_1.00E+00atm> (1)
3.24184636837292

>  <r_j_Free_Energy_(kcal/mol)_298.15K_1.00E+00atm> (1)
-16.6980583580566

>  <r_j_Internal_Energy_(kcal/mol)_298.15K_1.00E+00atm> (1)
2.64936077954564

>  <r_j_Heat_Capacity_(cal/mol/K)_298.15K_1.00E+00atm> (1)
13.7609578099022

>  <r_j_ln(Q)_298.15K_1.00E+00atm> (1)
28.1830624625108

>  <r_j_Total_Internal_Energy_(au)_298.15K_1.00E+00atm> (1)
-278.355629996596

>  <r_j_Total_Enthalpy_(au)_298.15K_1.00E+00atm> (1)
-278.354685810703

>  <r_j_Total_Free_Energy_(au)_298.15K_1.00E+00atm> (1)
-278.386462071748

>  <r_lp_tautomer_probability> (1)
1

>  <r_epik_Ionization_Penalty> (1)
  0.0000

>  <r_epik_Ionization_Penalty_Charging> (1)
  0.0000

>  <r_epik_Ionization_Penalty_Neutral> (1)
  0.0000

>  <r_epik_State_Penalty> (1)
  0.0000

>  <r_epik_Charging_Adjusted_Penalty> (1)
0

>  <i_epik_Tot_Q> (1)
0

>  <i_epik_Tot_abs_Q> (1)
0

>  <s_lp_Force_Field> (1)
S-OPLS

>  <r_lp_Energy> (1)
-1.0383

>  <b_lp_Chiralities_Consistent> (1)
1

$$$$
