6373_Trifluoromethane
                    3D
 Schrodinger Suite 2021-3.
  5  4  0  0  1  0            999 V2000
    0.0048    0.5085    0.4689 C   0  0  0  0  0  0
   -0.7988   -0.4512   -0.0168 F   0  0  0  0  0  0
    0.4123    1.2809   -0.5510 F   0  0  0  0  0  0
    1.0815   -0.0748    1.0195 F   0  0  0  0  0  0
   -0.5264    1.1095    1.2141 H   0  0  0  0  0  0
  1  2  1  0  0  0
  1  3  1  0  0  0
  1  4  1  0  0  0
  1  5  1  0  0  0
M  END
>  <i_m_Spin_multiplicity> (1)
1

>  <s_j_Task> (1)
Single Point

>  <s_j_QM_Method> (1)
DFT(b3lyp-d3)

>  <s_j_QM_Basis> (1)
cc-pvtz(-f)

>  <i_j_Number_of_canonical_orbitals> (1)
101

>  <i_j_Geometry_convergence_category> (1)
0

>  <r_j_Gas_Phase_Energy> (1)
-338.368020944843

>  <r_j_Final_Energy> (1)
-338.368020944843

>  <r_j_HOMO> (1)
-0.405853682838601

>  <r_j_LUMO> (1)
0.0470130264654644

>  <r_j_Polarizability> (1)
15.4657049218629

>  <r_j_QM_Dipole_(debye)> (1)
1.57381495006861

>  <r_j_QM_Dipole_X_(debye)> (1)
-0.763387553561849

>  <r_j_QM_Dipole_Y_(debye)> (1)
0.863799615452373

>  <r_j_QM_Dipole_Z_(debye)> (1)
1.07143976240882

>  <r_j_Lowest_Frequency_(cm-1)> (1)
500.30736410346

>  <r_j_Highest_Frequency_(cm-1)> (1)
3066.21337152525

>  <r_j_2nd_Lowest_Frequency_(cm-1)> (1)
500.7989561059

>  <i_j_Num_Negative_Frequencies> (1)
0

>  <r_j_Zero_Point_Energy_(kcal/mol)> (1)
15.6572189277898

>  <r_j_Entropy_(cal/mol/K)_298.15K_1.00E+00atm> (1)
64.3112821441646

>  <r_j_Enthalpy_(kcal/mol)_298.15K_1.00E+00atm> (1)
2.77467499097867

>  <r_j_Free_Energy_(kcal/mol)_298.15K_1.00E+00atm> (1)
-16.399733780304

>  <r_j_Internal_Energy_(kcal/mol)_298.15K_1.00E+00atm> (1)
2.1821894021514

>  <r_j_Heat_Capacity_(cal/mol/K)_298.15K_1.00E+00atm> (1)
10.2830184773941

>  <r_j_ln(Q)_298.15K_1.00E+00atm> (1)
27.6795488186717

>  <r_j_Total_Internal_Energy_(au)_298.15K_1.00E+00atm> (1)
-338.339592037898

>  <r_j_Total_Enthalpy_(au)_298.15K_1.00E+00atm> (1)
-338.338647852006

>  <r_j_Total_Free_Energy_(au)_298.15K_1.00E+00atm> (1)
-338.369204217587

>  <r_lp_tautomer_probability> (1)
1

>  <r_epik_Ionization_Penalty> (1)
  0.0000

>  <r_epik_Ionization_Penalty_Charging> (1)
  0.0000

>  <r_epik_Ionization_Penalty_Neutral> (1)
  0.0000

>  <r_epik_State_Penalty> (1)
  0.0000

>  <r_epik_Charging_Adjusted_Penalty> (1)
0

>  <i_epik_Tot_Q> (1)
0

>  <i_epik_Tot_abs_Q> (1)
0

>  <s_lp_Force_Field> (1)
S-OPLS

>  <r_lp_Energy> (1)
0.19341

>  <b_lp_Chiralities_Consistent> (1)
1

$$$$
