6375_Nitromethane
                    3D
 Schrodinger Suite 2021-3.
  7  6  0  0  1  0            999 V2000
   -0.0259    0.0078    0.0000 C   0  0  0  0  0  0
    1.4734    0.0041    0.0000 N   0  3  1  0  0  0
    2.0141   -1.0974    0.0000 O   0  0  0  0  0  0
    2.0467    1.0884    0.0000 O   0  5  0  0  0  0
   -0.3706    1.0388    0.0000 H   0  0  0  0  0  0
   -0.3474   -0.5325    0.8906 H   0  0  0  0  0  0
   -0.3474   -0.5324   -0.8907 H   0  0  0  0  0  0
  1  2  1  0  0  0
  1  5  1  0  0  0
  1  6  1  0  0  0
  1  7  1  0  0  0
  2  3  2  0  0  0
  2  4  1  0  0  0
M  END
>  <i_m_Spin_multiplicity> (1)
1

>  <s_j_Task> (1)
Single Point

>  <s_j_QM_Method> (1)
DFT(b3lyp-d3)

>  <s_j_QM_Basis> (1)
cc-pvtz(-f)

>  <i_j_Number_of_canonical_orbitals> (1)
119

>  <i_j_Geometry_convergence_category> (1)
0

>  <r_j_Gas_Phase_Energy> (1)
-245.103707109163

>  <r_j_Final_Energy> (1)
-245.103707109163

>  <r_j_HOMO> (1)
-0.305982000986593

>  <r_j_LUMO> (1)
-0.0817844284481932

>  <r_j_Polarizability> (1)
28.4710457981456

>  <r_j_QM_Dipole_(debye)> (1)
3.4931109968785

>  <r_j_QM_Dipole_X_(debye)> (1)
-3.49308833643232

>  <r_j_QM_Dipole_Y_(debye)> (1)
0.0125820713683479

>  <r_j_QM_Dipole_Z_(debye)> (1)
-4.3290372386178e-05

>  <r_j_Lowest_Frequency_(cm-1)> (1)
191.138204893818

>  <r_j_Highest_Frequency_(cm-1)> (1)
3155.63401361412

>  <r_j_2nd_Lowest_Frequency_(cm-1)> (1)
490.712436381482

>  <i_j_Num_Negative_Frequencies> (1)
0

>  <r_j_Zero_Point_Energy_(kcal/mol)> (1)
31.207632986088

>  <r_j_Entropy_(cal/mol/K)_298.15K_1.00E+00atm> (1)
65.79044868918

>  <r_j_Enthalpy_(kcal/mol)_298.15K_1.00E+00atm> (1)
3.12558159301088

>  <r_j_Free_Energy_(kcal/mol)_298.15K_1.00E+00atm> (1)
-16.4898406836681

>  <r_j_Internal_Energy_(kcal/mol)_298.15K_1.00E+00atm> (1)
2.53309600418361

>  <r_j_Heat_Capacity_(cal/mol/K)_298.15K_1.00E+00atm> (1)
12.3746962371465

>  <r_j_ln(Q)_298.15K_1.00E+00atm> (1)
27.8316316795266

>  <r_j_Total_Internal_Energy_(au)_298.15K_1.00E+00atm> (1)
-245.049937834589

>  <r_j_Total_Enthalpy_(au)_298.15K_1.00E+00atm> (1)
-245.048993648697

>  <r_j_Total_Free_Energy_(au)_298.15K_1.00E+00atm> (1)
-245.08025281404

>  <r_epik_Ionization_Penalty> (1)
  0.0007

>  <r_epik_Ionization_Penalty_Charging> (1)
  0.0000

>  <r_epik_Ionization_Penalty_Neutral> (1)
  0.0007

>  <r_epik_State_Penalty> (1)
  0.0005

>  <r_epik_Charging_Adjusted_Penalty> (1)
0.000450367

>  <i_epik_Tot_Q> (1)
0

>  <i_epik_Tot_abs_Q> (1)
2

>  <s_lp_Force_Field> (1)
S-OPLS

>  <r_lp_Energy> (1)
-0.346354

>  <b_lp_Chiralities_Consistent> (1)
1

$$$$
