6377_2-Methylaziridine
                    3D
 Schrodinger Suite 2021-3.
 12 12  0  0  1  0            999 V2000
   -0.0155   -0.0147   -0.0198 C   0  0  0  0  0  0
    1.4884   -0.0265   -0.0144 C   0  0  0  0  0  0
    2.2787   -0.4087    1.1769 C   0  0  0  0  0  0
    2.1670   -1.3883    0.0418 N   0  3  1  0  0  0
   -0.3517    0.9871    0.2635 H   0  0  0  0  0  0
   -0.4328   -0.7243    0.7013 H   0  0  0  0  0  0
   -0.4062   -0.2350   -1.0161 H   0  0  0  0  0  0
    1.9839    0.6166   -0.7377 H   0  0  0  0  0  0
    3.2797   -0.0155    1.3196 H   0  0  0  0  0  0
    1.7613   -0.7282    2.0763 H   0  0  0  0  0  0
    1.5776   -2.2094    0.1728 H   0  0  0  0  0  0
    2.9879   -1.5610   -0.5365 H   0  0  0  0  0  0
  1  2  1  0  0  0
  1  5  1  0  0  0
  1  6  1  0  0  0
  1  7  1  0  0  0
  2  4  1  0  0  0
  2  3  1  0  0  0
  2  8  1  0  0  0
  3  4  1  0  0  0
  3  9  1  0  0  0
  3 10  1  0  0  0
  4 11  1  0  0  0
  4 12  1  0  0  0
M  END
>  <i_m_Spin_multiplicity> (1)
1

>  <s_j_Task> (1)
Single Point

>  <s_j_QM_Method> (1)
DFT(b3lyp-d3)

>  <s_j_QM_Basis> (1)
cc-pvtz(-f)

>  <i_j_Number_of_canonical_orbitals> (1)
164

>  <i_j_Geometry_convergence_category> (1)
3

>  <r_j_Gas_Phase_Energy> (1)
-173.6757455848

>  <r_j_Final_Energy> (1)
-173.6757455848

>  <r_j_HOMO> (1)
-0.548040147405417

>  <r_j_LUMO> (1)
-0.187822224560045

>  <r_j_Polarizability> (1)
38.5376801991095

>  <r_j_QM_Dipole_(debye)> (1)
2.43600100727447

>  <r_j_QM_Dipole_X_(debye)> (1)
1.74070129770024

>  <r_j_QM_Dipole_Y_(debye)> (1)
-1.67655231278539

>  <r_j_QM_Dipole_Z_(debye)> (1)
-0.305339552172487

>  <r_j_Lowest_Frequency_(cm-1)> (1)
288.022565077691

>  <r_j_Highest_Frequency_(cm-1)> (1)
3533.21454029249

>  <r_j_2nd_Lowest_Frequency_(cm-1)> (1)
369.894312516168

>  <i_j_Num_Negative_Frequencies> (1)
0

>  <r_j_Zero_Point_Energy_(kcal/mol)> (1)
70.261904807659

>  <r_j_Entropy_(cal/mol/K)_298.15K_1.00E+00atm> (1)
66.9759458774107

>  <r_j_Enthalpy_(kcal/mol)_298.15K_1.00E+00atm> (1)
3.39706557177026

>  <r_j_Free_Energy_(kcal/mol)_298.15K_1.00E+00atm> (1)
-16.5718126915797

>  <r_j_Internal_Energy_(kcal/mol)_298.15K_1.00E+00atm> (1)
2.80457998294298

>  <r_j_Heat_Capacity_(cal/mol/K)_298.15K_1.00E+00atm> (1)
16.029662303433

>  <r_j_ln(Q)_298.15K_1.00E+00atm> (1)
27.9699844250741

>  <r_j_Total_Internal_Energy_(au)_298.15K_1.00E+00atm> (1)
-173.559306728841

>  <r_j_Total_Enthalpy_(au)_298.15K_1.00E+00atm> (1)
-173.558362542949

>  <r_j_Total_Free_Energy_(au)_298.15K_1.00E+00atm> (1)
-173.590184976263

>  <r_epik_Ionization_Penalty> (1)
  0.0185

>  <r_epik_Ionization_Penalty_Charging> (1)
  0.0185

>  <r_epik_Ionization_Penalty_Neutral> (1)
  0.0000

>  <r_epik_State_Penalty> (1)
  0.0147

>  <r_epik_Charging_Adjusted_Penalty> (1)
0.0332038

>  <i_epik_Tot_Q> (1)
1

>  <i_epik_Tot_abs_Q> (1)
1

>  <s_lp_Force_Field> (1)
S-OPLS

>  <r_lp_Energy> (1)
9.38449

>  <b_lp_Chiralities_Consistent> (1)
1

$$$$
