6389_Trichlorofluoromethane
                    3D
 Schrodinger Suite 2021-3.
  5  4  0  0  1  0            999 V2000
    0.1782    0.3065    0.2299 C   0  0  0  0  0  0
    0.5357    1.1619   -0.7356 F   0  0  0  0  0  0
   -0.6614   -1.0799   -0.5315 Cl  0  0  0  0  0  0
    1.6603   -0.2381    1.0747 Cl  0  0  0  0  0  0
   -0.9136    1.1611    1.3627 Cl  0  0  0  0  0  0
  1  2  1  0  0  0
  1  3  1  0  0  0
  1  4  1  0  0  0
  1  5  1  0  0  0
M  END
>  <i_m_Spin_multiplicity> (1)
1

>  <s_j_Task> (1)
Single Point

>  <s_j_QM_Method> (1)
DFT(b3lyp-d3)

>  <s_j_QM_Basis> (1)
cc-pvtz(-f)

>  <i_j_Number_of_canonical_orbitals> (1)
127

>  <i_j_Geometry_convergence_category> (1)
0

>  <r_j_Gas_Phase_Energy> (1)
-1518.67292897411

>  <r_j_Final_Energy> (1)
-1518.67292897411

>  <r_j_HOMO> (1)
-0.328967401655282

>  <r_j_LUMO> (1)
-0.0703543836567249

>  <r_j_Polarizability> (1)
48.2599434846558

>  <r_j_QM_Dipole_(debye)> (1)
0.308383689579826

>  <r_j_QM_Dipole_X_(debye)> (1)
-0.0841134879752452

>  <r_j_QM_Dipole_Y_(debye)> (1)
-0.196038567399679

>  <r_j_QM_Dipole_Z_(debye)> (1)
0.222697780032461

>  <r_j_Lowest_Frequency_(cm-1)> (1)
237.322957544887

>  <r_j_Highest_Frequency_(cm-1)> (1)
1080.72751217474

>  <r_j_2nd_Lowest_Frequency_(cm-1)> (1)
237.68595162226

>  <i_j_Num_Negative_Frequencies> (1)
0

>  <r_j_Zero_Point_Energy_(kcal/mol)> (1)
6.81705069828855

>  <r_j_Entropy_(cal/mol/K)_298.15K_1.00E+00atm> (1)
76.5240158885109

>  <r_j_Enthalpy_(kcal/mol)_298.15K_1.00E+00atm> (1)
3.89153552103693

>  <r_j_Free_Energy_(kcal/mol)_298.15K_1.00E+00atm> (1)
-18.9240998161226

>  <r_j_Internal_Energy_(kcal/mol)_298.15K_1.00E+00atm> (1)
3.29904993220966

>  <r_j_Heat_Capacity_(cal/mol/K)_298.15K_1.00E+00atm> (1)
16.9600552464848

>  <r_j_ln(Q)_298.15K_1.00E+00atm> (1)
31.9401858424602

>  <r_j_Total_Internal_Energy_(au)_298.15K_1.00E+00atm> (1)
-1518.6568079415

>  <r_j_Total_Enthalpy_(au)_298.15K_1.00E+00atm> (1)
-1518.65586375561

>  <r_j_Total_Free_Energy_(au)_298.15K_1.00E+00atm> (1)
-1518.69222278512

>  <r_lp_tautomer_probability> (1)
1

>  <r_epik_Ionization_Penalty> (1)
  0.0000

>  <r_epik_Ionization_Penalty_Charging> (1)
  0.0000

>  <r_epik_Ionization_Penalty_Neutral> (1)
  0.0000

>  <r_epik_State_Penalty> (1)
  0.0000

>  <r_epik_Charging_Adjusted_Penalty> (1)
0

>  <i_epik_Tot_Q> (1)
0

>  <i_epik_Tot_abs_Q> (1)
0

>  <s_lp_Force_Field> (1)
S-OPLS

>  <r_lp_Energy> (1)
0.034373

>  <b_lp_Chiralities_Consistent> (1)
1

$$$$
