6391_Dichlorodifluoromethane
                    3D
 Schrodinger Suite 2021-3.
  5  4  0  0  1  0            999 V2000
    0.1781    0.3081    0.2206 C   0  0  0  0  0  0
    0.5301    1.1546   -0.7483 F   0  0  0  0  0  0
   -0.4494   -0.7322   -0.3305 F   0  0  0  0  0  0
    1.6502   -0.2712    1.0556 Cl  0  0  0  0  0  0
   -0.9390    1.1370    1.3454 Cl  0  0  0  0  0  0
  1  2  1  0  0  0
  1  3  1  0  0  0
  1  4  1  0  0  0
  1  5  1  0  0  0
M  END
>  <i_m_Spin_multiplicity> (1)
1

>  <s_j_Task> (1)
Single Point

>  <s_j_QM_Method> (1)
DFT(b3lyp-d3)

>  <s_j_QM_Basis> (1)
cc-pvtz(-f)

>  <i_j_Number_of_canonical_orbitals> (1)
123

>  <i_j_Geometry_convergence_category> (1)
0

>  <r_j_Gas_Phase_Energy> (1)
-1158.33099349095

>  <r_j_Final_Energy> (1)
-1158.33099349095

>  <r_j_HOMO> (1)
-0.339092603044527

>  <r_j_LUMO> (1)
-0.0515383851818249

>  <r_j_Polarizability> (1)
36.834787764891

>  <r_j_QM_Dipole_(debye)> (1)
0.311452867989165

>  <r_j_QM_Dipole_X_(debye)> (1)
0.055557268127175

>  <r_j_QM_Dipole_Y_(debye)> (1)
0.0392143552675919

>  <r_j_QM_Dipole_Z_(debye)> (1)
0.303938337953389

>  <r_j_Lowest_Frequency_(cm-1)> (1)
252.639287509096

>  <r_j_Highest_Frequency_(cm-1)> (1)
1149.74849587913

>  <r_j_2nd_Lowest_Frequency_(cm-1)> (1)
316.614366118738

>  <i_j_Num_Negative_Frequencies> (1)
0

>  <r_j_Zero_Point_Energy_(kcal/mol)> (1)
8.00824189285401

>  <r_j_Entropy_(cal/mol/K)_298.15K_1.00E+00atm> (1)
73.5913669989109

>  <r_j_Enthalpy_(kcal/mol)_298.15K_1.00E+00atm> (1)
3.6071122529349

>  <r_j_Free_Energy_(kcal/mol)_298.15K_1.00E+00atm> (1)
-18.3341538177904

>  <r_j_Internal_Energy_(kcal/mol)_298.15K_1.00E+00atm> (1)
3.01462666410763

>  <r_j_Heat_Capacity_(cal/mol/K)_298.15K_1.00E+00atm> (1)
15.5959455545306

>  <r_j_ln(Q)_298.15K_1.00E+00atm> (1)
30.9444721753988

>  <r_j_Total_Internal_Energy_(au)_298.15K_1.00E+00atm> (1)
-1158.31342743166

>  <r_j_Total_Enthalpy_(au)_298.15K_1.00E+00atm> (1)
-1158.31248324577

>  <r_j_Total_Free_Energy_(au)_298.15K_1.00E+00atm> (1)
-1158.34744887915

>  <r_lp_tautomer_probability> (1)
1

>  <r_epik_Ionization_Penalty> (1)
  0.0000

>  <r_epik_Ionization_Penalty_Charging> (1)
  0.0000

>  <r_epik_Ionization_Penalty_Neutral> (1)
  0.0000

>  <r_epik_State_Penalty> (1)
  0.0000

>  <r_epik_Charging_Adjusted_Penalty> (1)
0

>  <i_epik_Tot_Q> (1)
0

>  <i_epik_Tot_abs_Q> (1)
0

>  <s_lp_Force_Field> (1)
S-OPLS

>  <r_lp_Energy> (1)
0.001263

>  <b_lp_Chiralities_Consistent> (1)
1

$$$$
