6392_Chlorotrifluoromethane
                    3D
 Schrodinger Suite 2021-3.
  5  4  0  0  1  0            999 V2000
    0.1887    0.3018    0.2176 C   0  0  0  0  0  0
    0.5506    1.1448   -0.7474 F   0  0  0  0  0  0
   -0.4295   -0.7429   -0.3293 F   0  0  0  0  0  0
    1.2792   -0.1236    0.8521 F   0  0  0  0  0  0
   -0.9035    1.1233    1.3669 Cl  0  0  0  0  0  0
  1  2  1  0  0  0
  1  3  1  0  0  0
  1  4  1  0  0  0
  1  5  1  0  0  0
M  END
>  <i_m_Spin_multiplicity> (1)
1

>  <s_j_Task> (1)
Single Point

>  <s_j_QM_Method> (1)
DFT(b3lyp-d3)

>  <s_j_QM_Basis> (1)
cc-pvtz(-f)

>  <i_j_Number_of_canonical_orbitals> (1)
119

>  <i_j_Geometry_convergence_category> (1)
0

>  <r_j_Gas_Phase_Energy> (1)
-797.991020560603

>  <r_j_Final_Energy> (1)
-797.991020560603

>  <r_j_HOMO> (1)
-0.356404924889925

>  <r_j_LUMO> (1)
-0.0188448770014899

>  <r_j_Polarizability> (1)
25.8628840784739

>  <r_j_QM_Dipole_(debye)> (1)
0.259552821654561

>  <r_j_QM_Dipole_X_(debye)> (1)
-0.159205510050761

>  <r_j_QM_Dipole_Y_(debye)> (1)
0.118998445633269

>  <r_j_QM_Dipole_Z_(debye)> (1)
0.166915076416683

>  <r_j_Lowest_Frequency_(cm-1)> (1)
340.331338844347

>  <r_j_Highest_Frequency_(cm-1)> (1)
1192.42808360421

>  <r_j_2nd_Lowest_Frequency_(cm-1)> (1)
340.735639821277

>  <i_j_Num_Negative_Frequencies> (1)
0

>  <r_j_Zero_Point_Energy_(kcal/mol)> (1)
9.23440626389963

>  <r_j_Entropy_(cal/mol/K)_298.15K_1.00E+00atm> (1)
70.5913440780393

>  <r_j_Enthalpy_(kcal/mol)_298.15K_1.00E+00atm> (1)
3.33113177601224

>  <r_j_Free_Energy_(kcal/mol)_298.15K_1.00E+00atm> (1)
-17.7156774608552

>  <r_j_Internal_Energy_(kcal/mol)_298.15K_1.00E+00atm> (1)
2.73864618718496

>  <r_j_Heat_Capacity_(cal/mol/K)_298.15K_1.00E+00atm> (1)
14.2049133965206

>  <r_j_ln(Q)_298.15K_1.00E+00atm> (1)
29.900604833141

>  <r_j_Total_Internal_Energy_(au)_298.15K_1.00E+00atm> (1)
-797.97194028688

>  <r_j_Total_Enthalpy_(au)_298.15K_1.00E+00atm> (1)
-797.970996100988

>  <r_j_Total_Free_Energy_(au)_298.15K_1.00E+00atm> (1)
-798.004536326663

>  <r_lp_tautomer_probability> (1)
1

>  <r_epik_Ionization_Penalty> (1)
  0.0000

>  <r_epik_Ionization_Penalty_Charging> (1)
  0.0000

>  <r_epik_Ionization_Penalty_Neutral> (1)
  0.0000

>  <r_epik_State_Penalty> (1)
  0.0000

>  <r_epik_Charging_Adjusted_Penalty> (1)
0

>  <i_epik_Tot_Q> (1)
0

>  <i_epik_Tot_abs_Q> (1)
0

>  <s_lp_Force_Field> (1)
S-OPLS

>  <r_lp_Energy> (1)
0.005563

>  <b_lp_Chiralities_Consistent> (1)
1

$$$$
