6393_Tetrafluoromethane
                    3D
 Schrodinger Suite 2021-3.
  5  4  0  0  1  0            999 V2000
    0.1793    0.3089    0.2276 C   0  0  0  0  0  0
    0.5343    1.1592   -0.7316 F   0  0  0  0  0  0
   -0.4474   -0.7324   -0.3126 F   0  0  0  0  0  0
    1.2645   -0.1120    0.8710 F   0  0  0  0  0  0
   -0.6343    0.9208    1.0835 F   0  0  0  0  0  0
  1  2  1  0  0  0
  1  3  1  0  0  0
  1  4  1  0  0  0
  1  5  1  0  0  0
M  END
>  <i_m_Spin_multiplicity> (1)
1

>  <s_j_Task> (1)
Single Point

>  <s_j_QM_Method> (1)
DFT(b3lyp-d3)

>  <s_j_QM_Basis> (1)
cc-pvtz(-f)

>  <i_j_Number_of_canonical_orbitals> (1)
115

>  <i_j_Geometry_convergence_category> (1)
3

>  <r_j_Gas_Phase_Energy> (1)
-437.652462319127

>  <r_j_Final_Energy> (1)
-437.652462319127

>  <r_j_HOMO> (1)
-0.44590874418754

>  <r_j_LUMO> (1)
0.127019313517657

>  <r_j_Polarizability> (1)
15.7471115534576

>  <r_j_QM_Dipole_(debye)> (1)
0.000767858027642818

>  <r_j_QM_Dipole_X_(debye)> (1)
0.000393066803549713

>  <r_j_QM_Dipole_Y_(debye)> (1)
-0.000527008698040967

>  <r_j_QM_Dipole_Z_(debye)> (1)
-0.000396694177864882

>  <r_j_Lowest_Frequency_(cm-1)> (1)
427.043912654654

>  <r_j_Highest_Frequency_(cm-1)> (1)
1238.89546700502

>  <r_j_2nd_Lowest_Frequency_(cm-1)> (1)
427.617488869333

>  <i_j_Num_Negative_Frequencies> (1)
0

>  <r_j_Zero_Point_Energy_(kcal/mol)> (1)
10.4611844775653

>  <r_j_Entropy_(cal/mol/K)_298.15K_1.00E+00atm> (1)
67.575602817916

>  <r_j_Enthalpy_(kcal/mol)_298.15K_1.00E+00atm> (1)
3.07040688536122

>  <r_j_Free_Energy_(kcal/mol)_298.15K_1.00E+00atm> (1)
-17.0772590948004

>  <r_j_Internal_Energy_(kcal/mol)_298.15K_1.00E+00atm> (1)
2.47792129653394

>  <r_j_Heat_Capacity_(cal/mol/K)_298.15K_1.00E+00atm> (1)
12.81590192549

>  <r_j_ln(Q)_298.15K_1.00E+00atm> (1)
28.8230792728681

>  <r_j_Total_Internal_Energy_(au)_298.15K_1.00E+00atm> (1)
-437.63184254143

>  <r_j_Total_Enthalpy_(au)_298.15K_1.00E+00atm> (1)
-437.630898355538

>  <r_j_Total_Free_Energy_(au)_298.15K_1.00E+00atm> (1)
-437.663005705217

>  <r_lp_tautomer_probability> (1)
1

>  <r_epik_Ionization_Penalty> (1)
  0.0000

>  <r_epik_Ionization_Penalty_Charging> (1)
  0.0000

>  <r_epik_Ionization_Penalty_Neutral> (1)
  0.0000

>  <r_epik_State_Penalty> (1)
  0.0000

>  <r_epik_Charging_Adjusted_Penalty> (1)
0

>  <i_epik_Tot_Q> (1)
0

>  <i_epik_Tot_abs_Q> (1)
0

>  <s_lp_Force_Field> (1)
S-OPLS

>  <r_lp_Energy> (1)
0.019393

>  <b_lp_Chiralities_Consistent> (1)
1

$$$$
