6416_2-Butanone, 3,3-dimethyl-
                    3D
 Schrodinger Suite 2021-3.
 19 18  0  0  1  0            999 V2000
   -0.0757   -0.1005    0.0021 C   0  0  0  0  0  0
    1.4500   -0.0383   -0.0007 C   0  0  0  0  0  0
    2.0865   -1.0754   -0.0039 O   0  0  0  0  0  0
    2.1455    1.3361    0.0005 C   0  0  0  0  0  0
    1.7205    2.1151   -1.2643 C   0  0  0  0  0  0
    3.6674    1.1346    0.0014 C   0  0  0  0  0  0
    1.7192    2.1147    1.2650 C   0  0  0  0  0  0
   -0.5698    0.8718    0.0021 H   0  0  0  0  0  0
   -0.3959   -0.6646    0.8832 H   0  0  0  0  0  0
   -0.3991   -0.6665   -0.8767 H   0  0  0  0  0  0
    2.2237    3.0877   -1.2849 H   0  0  0  0  0  0
    0.6426    2.2998   -1.2960 H   0  0  0  0  0  0
    2.0010    1.5730   -2.1734 H   0  0  0  0  0  0
    3.9879    0.5713   -0.8787 H   0  0  0  0  0  0
    3.9867    0.5708    0.8816 H   0  0  0  0  0  0
    4.1760    2.1042    0.0021 H   0  0  0  0  0  0
    2.2230    3.0870    1.2867 H   0  0  0  0  0  0
    1.9981    1.5720    2.1743 H   0  0  0  0  0  0
    0.6413    2.3002    1.2955 H   0  0  0  0  0  0
  1  2  1  0  0  0
  1  8  1  0  0  0
  1  9  1  0  0  0
  1 10  1  0  0  0
  2  3  2  0  0  0
  2  4  1  0  0  0
  4  5  1  0  0  0
  4  6  1  0  0  0
  4  7  1  0  0  0
  5 11  1  0  0  0
  5 12  1  0  0  0
  5 13  1  0  0  0
  6 14  1  0  0  0
  6 15  1  0  0  0
  6 16  1  0  0  0
  7 17  1  0  0  0
  7 18  1  0  0  0
  7 19  1  0  0  0
M  END
>  <i_m_Spin_multiplicity> (1)
1

>  <s_j_Task> (1)
Single Point

>  <s_j_QM_Method> (1)
DFT(b3lyp-d3)

>  <s_j_QM_Basis> (1)
cc-pvtz(-f)

>  <i_j_Number_of_canonical_orbitals> (1)
268

>  <i_j_Geometry_convergence_category> (1)
3

>  <r_j_Gas_Phase_Energy> (1)
-311.221094544928

>  <r_j_Final_Energy> (1)
-311.221094544928

>  <r_j_HOMO> (1)
-0.246703098101306

>  <r_j_LUMO> (1)
-0.0215188297287826

>  <r_j_Polarizability> (1)
74.4244736325497

>  <r_j_QM_Dipole_(debye)> (1)
2.72011115710422

>  <r_j_QM_Dipole_X_(debye)> (1)
-1.36540342679377

>  <r_j_QM_Dipole_Y_(debye)> (1)
2.35258013630048

>  <r_j_QM_Dipole_Z_(debye)> (1)
0.00670010351577423

>  <r_j_Lowest_Frequency_(cm-1)> (1)
77.7254456164942

>  <r_j_Highest_Frequency_(cm-1)> (1)
3098.16911010901

>  <r_j_2nd_Lowest_Frequency_(cm-1)> (1)
172.475589098161

>  <i_j_Num_Negative_Frequencies> (1)
0

>  <r_j_Zero_Point_Energy_(kcal/mol)> (1)
105.727231226338

>  <r_j_Entropy_(cal/mol/K)_298.15K_1.00E+00atm> (1)
86.7149047609044

>  <r_j_Enthalpy_(kcal/mol)_298.15K_1.00E+00atm> (1)
5.90163525008303

>  <r_j_Free_Energy_(kcal/mol)_298.15K_1.00E+00atm> (1)
-19.9524136043806

>  <r_j_Internal_Energy_(kcal/mol)_298.15K_1.00E+00atm> (1)
5.30914966125576

>  <r_j_Heat_Capacity_(cal/mol/K)_298.15K_1.00E+00atm> (1)
32.041373262078

>  <r_j_ln(Q)_298.15K_1.00E+00atm> (1)
33.6757787541686

>  <r_j_Total_Internal_Energy_(au)_298.15K_1.00E+00atm> (1)
-311.044146807569

>  <r_j_Total_Enthalpy_(au)_298.15K_1.00E+00atm> (1)
-311.043202621677

>  <r_j_Total_Free_Energy_(au)_298.15K_1.00E+00atm> (1)
-311.084403671367

>  <r_lp_tautomer_probability> (1)
1

>  <r_epik_Ionization_Penalty> (1)
  0.0000

>  <r_epik_Ionization_Penalty_Charging> (1)
  0.0000

>  <r_epik_Ionization_Penalty_Neutral> (1)
  0.0000

>  <r_epik_State_Penalty> (1)
  0.0000

>  <r_epik_Charging_Adjusted_Penalty> (1)
0

>  <i_epik_Tot_Q> (1)
0

>  <i_epik_Tot_abs_Q> (1)
0

>  <s_lp_Force_Field> (1)
S-OPLS

>  <r_lp_Energy> (1)
8.91864

>  <b_lp_Chiralities_Consistent> (1)
1

$$$$
