6419_Pentachloroethane
                    3D
 Schrodinger Suite 2021-3.
  8  7  0  0  1  0            999 V2000
   -0.0197   -0.0391   -0.0022 C   0  0  0  0  0  0
    1.5444   -0.0372   -0.0021 C   0  0  0  0  0  0
    2.2254   -1.6885   -0.0022 Cl  0  0  0  0  0  0
    2.1049    0.8634   -1.4598 Cl  0  0  0  0  0  0
    2.1048    0.8634    1.4557 Cl  0  0  0  0  0  0
   -0.6997   -0.8066    1.4670 Cl  0  0  0  0  0  0
   -0.6996   -0.8068   -1.4713 Cl  0  0  0  0  0  0
   -0.3381    1.0026   -0.0022 H   0  0  0  0  0  0
  1  2  1  0  0  0
  1  6  1  0  0  0
  1  7  1  0  0  0
  1  8  1  0  0  0
  2  3  1  0  0  0
  2  4  1  0  0  0
  2  5  1  0  0  0
M  END
>  <i_m_Spin_multiplicity> (1)
1

>  <s_j_Task> (1)
Single Point

>  <s_j_QM_Method> (1)
DFT(b3lyp-d3)

>  <s_j_QM_Basis> (1)
cc-pvtz(-f)

>  <i_j_Number_of_canonical_orbitals> (1)
190

>  <i_j_Geometry_convergence_category> (1)
1

>  <r_j_Gas_Phase_Energy> (1)
-2377.97987781796

>  <r_j_Final_Energy> (1)
-2377.97987781796

>  <r_j_HOMO> (1)
-0.313099422898915

>  <r_j_LUMO> (1)
-0.0589761427900081

>  <r_j_Polarizability> (1)
83.1892940924024

>  <r_j_QM_Dipole_(debye)> (1)
0.903624519747277

>  <r_j_QM_Dipole_X_(debye)> (1)
-0.216170095736395

>  <r_j_QM_Dipole_Y_(debye)> (1)
0.877386842963119

>  <r_j_QM_Dipole_Z_(debye)> (1)
-0.000300321538426975

>  <r_j_Lowest_Frequency_(cm-1)> (1)
79.3462364637537

>  <r_j_Highest_Frequency_(cm-1)> (1)
3092.96140317806

>  <r_j_2nd_Lowest_Frequency_(cm-1)> (1)
161.999698818434

>  <i_j_Num_Negative_Frequencies> (1)
0

>  <r_j_Zero_Point_Energy_(kcal/mol)> (1)
17.6979400966443

>  <r_j_Entropy_(cal/mol/K)_298.15K_1.00E+00atm> (1)
91.2851493088815

>  <r_j_Enthalpy_(kcal/mol)_298.15K_1.00E+00atm> (1)
5.62846867715849

>  <r_j_Free_Energy_(kcal/mol)_298.15K_1.00E+00atm> (1)
-21.5881985892845

>  <r_j_Internal_Energy_(kcal/mol)_298.15K_1.00E+00atm> (1)
5.03598308833121

>  <r_j_Heat_Capacity_(cal/mol/K)_298.15K_1.00E+00atm> (1)
26.5446167867849

>  <r_j_ln(Q)_298.15K_1.00E+00atm> (1)
36.4366644461593

>  <r_j_Total_Internal_Energy_(au)_298.15K_1.00E+00atm> (1)
-2377.94364900505

>  <r_j_Total_Enthalpy_(au)_298.15K_1.00E+00atm> (1)
-2377.94270481916

>  <r_j_Total_Free_Energy_(au)_298.15K_1.00E+00atm> (1)
-2377.98607733952

>  <r_lp_tautomer_probability> (1)
1

>  <r_epik_Ionization_Penalty> (1)
  0.0000

>  <r_epik_Ionization_Penalty_Charging> (1)
  0.0000

>  <r_epik_Ionization_Penalty_Neutral> (1)
  0.0000

>  <r_epik_State_Penalty> (1)
  0.0000

>  <r_epik_Charging_Adjusted_Penalty> (1)
0

>  <i_epik_Tot_Q> (1)
0

>  <i_epik_Tot_abs_Q> (1)
0

>  <s_lp_Force_Field> (1)
S-OPLS

>  <r_lp_Energy> (1)
-0.056323

>  <b_lp_Chiralities_Consistent> (1)
1

$$$$
