6423_Chloropicrin
                    3D
 Schrodinger Suite 2021-3.
  7  6  0  0  1  0            999 V2000
   -0.0728    0.0171    0.0296 C   0  0  0  0  0  0
    1.5466    0.0034    0.0059 N   0  3  1  0  0  0
    2.0719   -0.9635    0.5169 O   0  0  0  0  0  0
    2.0720    0.9291   -0.5764 O   0  5  0  0  0  0
   -0.6252    1.6946    0.0137 Cl  0  0  0  0  0  0
   -0.5377   -0.8437   -1.4617 Cl  0  0  0  0  0  0
   -0.6251   -0.8357    1.4743 Cl  0  0  0  0  0  0
  1  2  1  0  0  0
  1  5  1  0  0  0
  1  6  1  0  0  0
  1  7  1  0  0  0
  2  3  2  0  0  0
  2  4  1  0  0  0
M  END
>  <i_m_Spin_multiplicity> (1)
1

>  <s_j_Task> (1)
Single Point

>  <s_j_QM_Method> (1)
DFT(b3lyp-d3)

>  <s_j_QM_Basis> (1)
cc-pvtz(-f)

>  <i_j_Number_of_canonical_orbitals> (1)
173

>  <i_j_Geometry_convergence_category> (1)
0

>  <r_j_Gas_Phase_Energy> (1)
-1623.95172633968

>  <r_j_Final_Energy> (1)
-1623.95172633968

>  <r_j_HOMO> (1)
-0.324445422290359

>  <r_j_LUMO> (1)
-0.111003530272265

>  <r_j_Polarizability> (1)
63.1849150592188

>  <r_j_QM_Dipole_(debye)> (1)
1.86979142942864

>  <r_j_QM_Dipole_X_(debye)> (1)
-1.86322084683485

>  <r_j_QM_Dipole_Y_(debye)> (1)
0.0785402923857337

>  <r_j_QM_Dipole_Z_(debye)> (1)
0.135497188003148

>  <r_j_Lowest_Frequency_(cm-1)> (1)
78.5508481980034

>  <r_j_Highest_Frequency_(cm-1)> (1)
1620.31157324615

>  <r_j_2nd_Lowest_Frequency_(cm-1)> (1)
189.585312631156

>  <i_j_Num_Negative_Frequencies> (1)
0

>  <r_j_Zero_Point_Energy_(kcal/mol)> (1)
12.8707609773779

>  <r_j_Entropy_(cal/mol/K)_298.15K_1.00E+00atm> (1)
85.6738970852266

>  <r_j_Enthalpy_(kcal/mol)_298.15K_1.00E+00atm> (1)
5.02580779867586

>  <r_j_Free_Energy_(kcal/mol)_298.15K_1.00E+00atm> (1)
-20.5178646172845

>  <r_j_Internal_Energy_(kcal/mol)_298.15K_1.00E+00atm> (1)
4.43332220984858

>  <r_j_Heat_Capacity_(cal/mol/K)_298.15K_1.00E+00atm> (1)
23.2593139563806

>  <r_j_ln(Q)_298.15K_1.00E+00atm> (1)
34.6301496681061

>  <r_j_Total_Internal_Energy_(au)_298.15K_1.00E+00atm> (1)
-1623.92415052766

>  <r_j_Total_Enthalpy_(au)_298.15K_1.00E+00atm> (1)
-1623.92320634176

>  <r_j_Total_Free_Energy_(au)_298.15K_1.00E+00atm> (1)
-1623.96391277511

>  <r_lp_tautomer_probability> (1)
1

>  <r_epik_Ionization_Penalty> (1)
  0.0000

>  <r_epik_Ionization_Penalty_Charging> (1)
  0.0000

>  <r_epik_Ionization_Penalty_Neutral> (1)
  0.0000

>  <r_epik_State_Penalty> (1)
  0.0000

>  <r_epik_Charging_Adjusted_Penalty> (1)
0

>  <i_epik_Tot_Q> (1)
0

>  <i_epik_Tot_abs_Q> (1)
2

>  <s_lp_Force_Field> (1)
S-OPLS

>  <r_lp_Energy> (1)
5.564

>  <b_lp_Chiralities_Consistent> (1)
1

$$$$
