6430_Chloropentafluoroethane
                    3D
 Schrodinger Suite 2021-3.
  8  7  0  0  1  0            999 V2000
   -0.0300   -0.0065    0.0000 C   0  0  0  0  0  0
    1.5216   -0.0190    0.0000 C   0  0  0  0  0  0
    1.9519    0.6315   -1.0916 F   0  0  0  0  0  0
    1.9519    0.6314    1.0916 F   0  0  0  0  0  0
    2.1659   -1.6844    0.0000 Cl  0  0  0  0  0  0
   -0.4480    1.2666    0.0000 F   0  0  0  0  0  0
   -0.5013   -0.6186   -1.0907 F   0  0  0  0  0  0
   -0.5014   -0.6186    1.0908 F   0  0  0  0  0  0
  1  2  1  0  0  0
  1  6  1  0  0  0
  1  7  1  0  0  0
  1  8  1  0  0  0
  2  3  1  0  0  0
  2  4  1  0  0  0
  2  5  1  0  0  0
M  END
>  <i_m_Spin_multiplicity> (1)
1

>  <s_j_Task> (1)
Single Point

>  <s_j_QM_Method> (1)
DFT(b3lyp-d3)

>  <s_j_QM_Basis> (1)
cc-pvtz(-f)

>  <i_j_Number_of_canonical_orbitals> (1)
188

>  <i_j_Geometry_convergence_category> (1)
0

>  <r_j_Gas_Phase_Energy> (1)
-1035.86785164974

>  <r_j_Final_Energy> (1)
-1035.86785164974

>  <r_j_HOMO> (1)
-0.36481718744011

>  <r_j_LUMO> (1)
-0.0320302564432403

>  <r_j_Polarizability> (1)
38.2144133018785

>  <r_j_QM_Dipole_(debye)> (1)
0.384710157607521

>  <r_j_QM_Dipole_X_(debye)> (1)
0.187514611741452

>  <r_j_QM_Dipole_Y_(debye)> (1)
-0.335916742101684

>  <r_j_QM_Dipole_Z_(debye)> (1)
-0.000343694117487084

>  <r_j_Lowest_Frequency_(cm-1)> (1)
74.9586346311944

>  <r_j_Highest_Frequency_(cm-1)> (1)
1327.46637536462

>  <r_j_2nd_Lowest_Frequency_(cm-1)> (1)
184.928262831185

>  <i_j_Num_Negative_Frequencies> (1)
0

>  <r_j_Zero_Point_Energy_(kcal/mol)> (1)
16.9436303434798

>  <r_j_Entropy_(cal/mol/K)_298.15K_1.00E+00atm> (1)
84.6836434079897

>  <r_j_Enthalpy_(kcal/mol)_298.15K_1.00E+00atm> (1)
5.04395833257786

>  <r_j_Free_Energy_(kcal/mol)_298.15K_1.00E+00atm> (1)
-20.2044699495143

>  <r_j_Internal_Energy_(kcal/mol)_298.15K_1.00E+00atm> (1)
4.45147274375059

>  <r_j_Heat_Capacity_(cal/mol/K)_298.15K_1.00E+00atm> (1)
24.5653981810167

>  <r_j_ln(Q)_298.15K_1.00E+00atm> (1)
34.1012006545267

>  <r_j_Total_Internal_Energy_(au)_298.15K_1.00E+00atm> (1)
-1035.83375638248

>  <r_j_Total_Enthalpy_(au)_298.15K_1.00E+00atm> (1)
-1035.83281219659

>  <r_j_Total_Free_Energy_(au)_298.15K_1.00E+00atm> (1)
-1035.87304812846

>  <r_lp_tautomer_probability> (1)
1

>  <r_epik_Ionization_Penalty> (1)
  0.0000

>  <r_epik_Ionization_Penalty_Charging> (1)
  0.0000

>  <r_epik_Ionization_Penalty_Neutral> (1)
  0.0000

>  <r_epik_State_Penalty> (1)
  0.0000

>  <r_epik_Charging_Adjusted_Penalty> (1)
0

>  <i_epik_Tot_Q> (1)
0

>  <i_epik_Tot_abs_Q> (1)
0

>  <s_lp_Force_Field> (1)
S-OPLS

>  <r_lp_Energy> (1)
-11.4547

>  <b_lp_Chiralities_Consistent> (1)
1

$$$$
