6431_Hexafluoroethane
                    3D
 Schrodinger Suite 2021-3.
  8  7  0  0  1  0            999 V2000
   -0.0230    0.0000   -0.0001 C   0  0  0  0  0  0
    1.5229    0.0001    0.0001 C   0  0  0  0  0  0
    1.9767   -1.2592    0.0002 F   0  0  0  0  0  0
    1.9768    0.6292   -1.0907 F   0  0  0  0  0  0
    1.9769    0.6300    1.0904 F   0  0  0  0  0  0
   -0.4767    1.2594    0.0005 F   0  0  0  0  0  0
   -0.4768   -0.6296   -1.0907 F   0  0  0  0  0  0
   -0.4768   -0.6299    1.0903 F   0  0  0  0  0  0
  1  2  1  0  0  0
  1  6  1  0  0  0
  1  7  1  0  0  0
  1  8  1  0  0  0
  2  3  1  0  0  0
  2  4  1  0  0  0
  2  5  1  0  0  0
M  END
>  <i_m_Spin_multiplicity> (1)
1

>  <s_j_Task> (1)
Single Point

>  <s_j_QM_Method> (1)
DFT(b3lyp-d3)

>  <s_j_QM_Basis> (1)
cc-pvtz(-f)

>  <i_j_Number_of_canonical_orbitals> (1)
184

>  <i_j_Geometry_convergence_category> (1)
0

>  <r_j_Gas_Phase_Energy> (1)
-675.525889862304

>  <r_j_Final_Energy> (1)
-675.525889862304

>  <r_j_HOMO> (1)
-0.409565644129345

>  <r_j_LUMO> (1)
0.0601001115937018

>  <r_j_Polarizability> (1)
27.6425399332684

>  <r_j_QM_Dipole_(debye)> (1)
0.000728474705874211

>  <r_j_QM_Dipole_X_(debye)> (1)
-0.000656043080606978

>  <r_j_QM_Dipole_Y_(debye)> (1)
-0.000196192683424992

>  <r_j_QM_Dipole_Z_(debye)> (1)
0.000248578567975451

>  <r_j_Lowest_Frequency_(cm-1)> (1)
78.2057209932797

>  <r_j_Highest_Frequency_(cm-1)> (1)
1399.13419205517

>  <r_j_2nd_Lowest_Frequency_(cm-1)> (1)
220.957535083189

>  <i_j_Num_Negative_Frequencies> (1)
0

>  <r_j_Zero_Point_Energy_(kcal/mol)> (1)
18.1248203023797

>  <r_j_Entropy_(cal/mol/K)_298.15K_1.00E+00atm> (1)
78.5912626547014

>  <r_j_Enthalpy_(kcal/mol)_298.15K_1.00E+00atm> (1)
4.79080173418975

>  <r_j_Free_Energy_(kcal/mol)_298.15K_1.00E+00atm> (1)
-18.6411832263095

>  <r_j_Internal_Energy_(kcal/mol)_298.15K_1.00E+00atm> (1)
4.19831614536247

>  <r_j_Heat_Capacity_(cal/mol/K)_298.15K_1.00E+00atm> (1)
23.3225364211404

>  <r_j_ln(Q)_298.15K_1.00E+00atm> (1)
31.4626778740839

>  <r_j_Total_Internal_Energy_(au)_298.15K_1.00E+00atm> (1)
-675.490315679738

>  <r_j_Total_Enthalpy_(au)_298.15K_1.00E+00atm> (1)
-675.489371493846

>  <r_j_Total_Free_Energy_(au)_298.15K_1.00E+00atm> (1)
-675.526712739007

>  <r_lp_tautomer_probability> (1)
1

>  <r_epik_Ionization_Penalty> (1)
  0.0000

>  <r_epik_Ionization_Penalty_Charging> (1)
  0.0000

>  <r_epik_Ionization_Penalty_Neutral> (1)
  0.0000

>  <r_epik_State_Penalty> (1)
  0.0000

>  <r_epik_Charging_Adjusted_Penalty> (1)
0

>  <i_epik_Tot_Q> (1)
0

>  <i_epik_Tot_abs_Q> (1)
0

>  <s_lp_Force_Field> (1)
S-OPLS

>  <r_lp_Energy> (1)
-12.817858

>  <b_lp_Chiralities_Consistent> (1)
1

$$$$
