643587_cis-Hydrindane
                    3D
 Schrodinger Suite 2021-3.
 25 26  0  0  1  0            999 V2000
   -0.2584    1.5999    0.6007 C   0  0  0  0  0  0
    1.1162    2.2895    0.5073 C   0  0  0  0  0  0
    2.1861    1.5778    1.3592 C   0  0  0  0  0  0
    2.2465    0.0977    0.9831 C   0  0  1  0  0  0
    3.1660   -0.8322    1.7881 C   0  0  0  0  0  0
    2.6028   -2.2630    1.5223 C   0  0  0  0  0  0
    1.2000   -2.0587    0.8714 C   0  0  0  0  0  0
    0.8726   -0.5803    1.1252 C   0  0  2  0  0  0
   -0.1840    0.0993    0.2549 C   0  0  0  0  0  0
   -0.9763    2.1066   -0.0552 H   0  0  0  0  0  0
   -0.6426    1.7080    1.6250 H   0  0  0  0  0  0
    1.4435    2.2912   -0.5422 H   0  0  0  0  0  0
    1.0283    3.3407    0.8067 H   0  0  0  0  0  0
    3.1624    2.0603    1.2261 H   0  0  0  0  0  0
    1.9313    1.6687    2.4254 H   0  0  0  0  0  0
    2.5317    0.0293   -0.0806 H   0  0  0  0  0  0
    4.2211   -0.7335    1.5133 H   0  0  0  0  0  0
    3.0889   -0.5834    2.8543 H   0  0  0  0  0  0
    3.2614   -2.8343    0.8608 H   0  0  0  0  0  0
    2.5290   -2.8321    2.4543 H   0  0  0  0  0  0
    1.2513   -2.2370   -0.2105 H   0  0  0  0  0  0
    0.4428   -2.7406    1.2714 H   0  0  0  0  0  0
    0.5656   -0.4706    2.1794 H   0  0  0  0  0  0
   -1.1666   -0.3711    0.3851 H   0  0  0  0  0  0
    0.0877   -0.0236   -0.8038 H   0  0  0  0  0  0
  1  9  1  0  0  0
  1  2  1  0  0  0
  1 10  1  0  0  0
  1 11  1  0  0  0
  2  3  1  0  0  0
  2 12  1  0  0  0
  2 13  1  0  0  0
  3  4  1  0  0  0
  3 14  1  0  0  0
  3 15  1  0  0  0
  4  8  1  0  0  0
  4  5  1  0  0  0
  4 16  1  0  0  0
  5  6  1  0  0  0
  5 17  1  0  0  0
  5 18  1  0  0  0
  6  7  1  0  0  0
  6 19  1  0  0  0
  6 20  1  0  0  0
  7  8  1  0  0  0
  7 21  1  0  0  0
  7 22  1  0  0  0
  8  9  1  0  0  0
  8 23  1  0  0  0
  9 24  1  0  0  0
  9 25  1  0  0  0
M  END
> <i_m_Spin_multiplicity>
1

> <s_j_Task>
Single Point

> <s_j_QM_Method>
DFT(b3lyp-d3)

> <s_j_QM_Basis>
cc-pvtz(-f)

> <i_j_Number_of_canonical_orbitals>
347

> <i_j_Geometry_convergence_category>
3

> <r_j_Gas_Phase_Energy>
-352.744315955673

> <r_j_Final_Energy>
-352.744315955673

> <r_j_HOMO>
-0.292050155254468

> <r_j_LUMO>
0.0213533141283529

> <r_j_Polarizability>
100.621561984739

> <r_j_QM_Dipole_(debye)>
0.108085023811583

> <r_j_QM_Dipole_X_(debye)>
-0.0491277091030946

> <r_j_QM_Dipole_Y_(debye)>
0.0938045712560089

> <r_j_QM_Dipole_Z_(debye)>
-0.0216689404934466

> <r_j_Lowest_Frequency_(cm-1)>
142.647631226856

> <r_j_Highest_Frequency_(cm-1)>
3046.38579161607

> <r_j_2nd_Lowest_Frequency_(cm-1)>
186.879737829637

> <i_j_Num_Negative_Frequencies>
0

> <r_j_Zero_Point_Energy_(kcal/mol)>
146.627478545262

> <r_j_Entropy_(cal/mol/K)_298.15K_1.00E+00atm>
85.4163406532704

> <r_j_Enthalpy_(kcal/mol)_298.15K_1.00E+00atm>
5.46946388303705

> <r_j_Free_Energy_(kcal/mol)_298.15K_1.00E+00atm>
-19.9974180827355

> <r_j_Internal_Energy_(kcal/mol)_298.15K_1.00E+00atm>
4.87697829420978

> <r_j_Heat_Capacity_(cal/mol/K)_298.15K_1.00E+00atm>
32.8187648435191

> <r_j_ln(Q)_298.15K_1.00E+00atm>
33.7517375271811

> <r_j_Total_Internal_Energy_(au)_298.15K_1.00E+00atm>
-352.502878233882

> <r_j_Total_Enthalpy_(au)_298.15K_1.00E+00atm>
-352.50193404799

> <r_j_Total_Free_Energy_(au)_298.15K_1.00E+00atm>
-352.542518107965

> <r_lp_tautomer_probability>
1

> <r_epik_Ionization_Penalty>
  0.0000

> <r_epik_Ionization_Penalty_Charging>
  0.0000

> <r_epik_Ionization_Penalty_Neutral>
  0.0000

> <r_epik_State_Penalty>
  0.0000

> <r_epik_Charging_Adjusted_Penalty>
0

> <i_epik_Tot_Q>
0

> <i_epik_Tot_abs_Q>
0

> <s_lp_Force_Field>
S-OPLS

> <r_lp_Energy>
14.8228

> <b_lp_Chiralities_Consistent>
1

$$$$
