643935_3-methyl-cis-2-pentene
                    3D
 Schrodinger Suite 2021-3.
 18 17  0  0  1  0            999 V2000
   -0.5646    1.4609   -0.1062 C   0  0  0  0  0  0
    0.0380    0.0587    0.0935 C   0  0  0  0  0  0
    1.5522    0.0296    0.0094 C   0  0  0  0  0  0
    2.2856   -0.2349    1.1013 C   0  0  0  0  0  0
    3.7812   -0.2932    1.2358 C   0  0  0  0  0  0
    2.1271    0.3293   -1.3544 C   0  0  0  0  0  0
   -1.6552    1.4347   -0.0110 H   0  0  0  0  0  0
   -0.3299    1.8660   -1.0956 H   0  0  0  0  0  0
   -0.1743    2.1582    0.6424 H   0  0  0  0  0  0
   -0.2828   -0.3325    1.0659 H   0  0  0  0  0  0
   -0.3808   -0.6164   -0.6673 H   0  0  0  0  0  0
    1.7438   -0.4369    2.0265 H   0  0  0  0  0  0
    4.1345    0.4466    1.9660 H   0  0  0  0  0  0
    4.3077   -0.1059    0.2971 H   0  0  0  0  0  0
    4.1015   -1.2748    1.6085 H   0  0  0  0  0  0
    1.6690   -0.3172   -2.1141 H   0  0  0  0  0  0
    3.2082    0.1886   -1.4047 H   0  0  0  0  0  0
    1.9150    1.3625   -1.6560 H   0  0  0  0  0  0
  1  2  1  0  0  0
  1  7  1  0  0  0
  1  8  1  0  0  0
  1  9  1  0  0  0
  2  3  1  0  0  0
  2 10  1  0  0  0
  2 11  1  0  0  0
  3  4  2  0  0  0
  3  6  1  0  0  0
  4  5  1  0  0  0
  4 12  1  0  0  0
  5 13  1  0  0  0
  5 14  1  0  0  0
  5 15  1  0  0  0
  6 16  1  0  0  0
  6 17  1  0  0  0
  6 18  1  0  0  0
M  END
>  <i_m_Spin_multiplicity> (1)
1

>  <s_j_Task> (1)
Single Point

>  <s_j_QM_Method> (1)
DFT(b3lyp-d3)

>  <s_j_QM_Basis> (1)
cc-pvtz(-f)

>  <i_j_Number_of_canonical_orbitals> (1)
244

>  <i_j_Geometry_convergence_category> (1)
3

>  <r_j_Gas_Phase_Energy> (1)
-235.949898145444

>  <r_j_Final_Energy> (1)
-235.949898145444

>  <r_j_HOMO> (1)
-0.236002960271249

>  <r_j_LUMO> (1)
0.0187604242808571

>  <r_j_Polarizability> (1)
75.1886307419329

>  <r_j_QM_Dipole_(debye)> (1)
0.175195344841019

>  <r_j_QM_Dipole_X_(debye)> (1)
0.0451527613926156

>  <r_j_QM_Dipole_Y_(debye)> (1)
0.047312275371375

>  <r_j_QM_Dipole_Z_(debye)> (1)
-0.162530568176477

>  <r_j_Lowest_Frequency_(cm-1)> (1)
103.643433610686

>  <r_j_Highest_Frequency_(cm-1)> (1)
3083.00133142037

>  <r_j_2nd_Lowest_Frequency_(cm-1)> (1)
190.493452374241

>  <i_j_Num_Negative_Frequencies> (1)
0

>  <r_j_Zero_Point_Energy_(kcal/mol)> (1)
103.09885320376

>  <r_j_Entropy_(cal/mol/K)_298.15K_1.00E+00atm> (1)
83.1506180727199

>  <r_j_Enthalpy_(kcal/mol)_298.15K_1.00E+00atm> (1)
5.37519401764751

>  <r_j_Free_Energy_(kcal/mol)_298.15K_1.00E+00atm> (1)
-19.4161627607339

>  <r_j_Internal_Energy_(kcal/mol)_298.15K_1.00E+00atm> (1)
4.78270842882024

>  <r_j_Heat_Capacity_(cal/mol/K)_298.15K_1.00E+00atm> (1)
27.9688436313807

>  <r_j_ln(Q)_298.15K_1.00E+00atm> (1)
32.7706920250414

>  <r_j_Total_Internal_Energy_(au)_298.15K_1.00E+00atm> (1)
-235.777977932618

>  <r_j_Total_Enthalpy_(au)_298.15K_1.00E+00atm> (1)
-235.777033746726

>  <r_j_Total_Free_Energy_(au)_298.15K_1.00E+00atm> (1)
-235.816541288785

>  <r_lp_tautomer_probability> (1)
1

>  <r_epik_Ionization_Penalty> (1)
  0.0000

>  <r_epik_Ionization_Penalty_Charging> (1)
  0.0000

>  <r_epik_Ionization_Penalty_Neutral> (1)
  0.0000

>  <r_epik_State_Penalty> (1)
  0.0000

>  <r_epik_Charging_Adjusted_Penalty> (1)
0

>  <i_epik_Tot_Q> (1)
0

>  <i_epik_Tot_abs_Q> (1)
0

>  <s_lp_Force_Field> (1)
S-OPLS

>  <r_lp_Energy> (1)
-2.18088

>  <b_lp_Chiralities_Consistent> (1)
1

$$$$
