6448_Isobornyl acetate
                    3D
 Schrodinger Suite 2021-3.
 34 35  0  0  1  0            999 V2000
   -2.0786    1.1968   -0.1981 C   0  0  0  0  0  0
   -0.5731    1.3146   -0.1964 C   0  0  0  0  0  0
    0.0534    2.3305   -0.4083 O   0  0  0  0  0  0
   -0.0016    0.1204    0.0788 O   0  0  0  0  0  0
    1.4467    0.0978    0.0918 C   0  0  0  0  0  0
    2.0681    0.7219    1.3721 C   0  0  0  0  0  0
    2.9158   -0.4411    1.9414 C   0  0  0  0  0  0
    1.9293   -1.4622    2.5551 C   0  0  0  0  0  0
    1.2432   -2.0783    1.2964 C   0  0  0  0  0  0
    1.9407   -1.3672    0.1025 C   0  0  0  0  0  0
    3.4030   -1.1696    0.6496 C   0  0  0  0  0  0
    4.3186   -0.3145   -0.2475 C   0  0  0  0  0  0
    4.1512   -2.4884    0.9106 C   0  0  0  0  0  0
    1.7715   -2.0735   -1.2333 C   0  0  0  0  0  0
   -2.3945    0.4513   -0.9336 H   0  0  0  0  0  0
   -2.5181    2.1657   -0.4329 H   0  0  0  0  0  0
   -2.4249    0.8558    0.7821 H   0  0  0  0  0  0
    1.7765    0.6222   -0.8073 H   0  0  0  0  0  0
    2.6624    1.6050    1.1285 H   0  0  0  0  0  0
    1.2859    1.0424    2.0656 H   0  0  0  0  0  0
    3.7102   -0.1206    2.6222 H   0  0  0  0  0  0
    2.4514   -2.2215    3.1444 H   0  0  0  0  0  0
    1.2145   -0.9754    3.2256 H   0  0  0  0  0  0
    1.3995   -3.1593    1.2348 H   0  0  0  0  0  0
    0.1652   -1.9097    1.2755 H   0  0  0  0  0  0
    4.5140   -0.8276   -1.1955 H   0  0  0  0  0  0
    5.2851   -0.1617    0.2448 H   0  0  0  0  0  0
    3.9196    0.6725   -0.4867 H   0  0  0  0  0  0
    4.4028   -2.9783   -0.0364 H   0  0  0  0  0  0
    3.5895   -3.2062    1.5101 H   0  0  0  0  0  0
    5.0925   -2.2872    1.4341 H   0  0  0  0  0  0
    2.1464   -3.1013   -1.1893 H   0  0  0  0  0  0
    2.3069   -1.5500   -2.0332 H   0  0  0  0  0  0
    0.7133   -2.1131   -1.5119 H   0  0  0  0  0  0
  1  2  1  0  0  0
  1 15  1  0  0  0
  1 16  1  0  0  0
  1 17  1  0  0  0
  2  3  2  0  0  0
  2  4  1  0  0  0
  4  5  1  0  0  0
  5 10  1  0  0  0
  5  6  1  0  0  0
  5 18  1  0  0  0
  6  7  1  0  0  0
  6 19  1  0  0  0
  6 20  1  0  0  0
  7 11  1  0  0  0
  7  8  1  0  0  0
  7 21  1  0  0  0
  8  9  1  0  0  0
  8 22  1  0  0  0
  8 23  1  0  0  0
  9 10  1  0  0  0
  9 24  1  0  0  0
  9 25  1  0  0  0
 10 11  1  0  0  0
 10 14  1  0  0  0
 11 12  1  0  0  0
 11 13  1  0  0  0
 12 26  1  0  0  0
 12 27  1  0  0  0
 12 28  1  0  0  0
 13 29  1  0  0  0
 13 30  1  0  0  0
 13 31  1  0  0  0
 14 32  1  0  0  0
 14 33  1  0  0  0
 14 34  1  0  0  0
M  END
>  <i_m_Spin_multiplicity> (1)
1

>  <s_j_Task> (1)
Single Point

>  <s_j_QM_Method> (1)
DFT(b3lyp-d3)

>  <s_j_QM_Basis> (1)
cc-pvtz(-f)

>  <i_j_Number_of_canonical_orbitals> (1)
496

>  <i_j_Geometry_convergence_category> (1)
1

>  <r_j_Gas_Phase_Energy> (1)
-620.031020046426

>  <r_j_Final_Energy> (1)
-620.031020046426

>  <r_j_HOMO> (1)
-0.271015416853637

>  <r_j_LUMO> (1)
0.00744378006487478

>  <r_j_Polarizability> (1)
138.944301448891

>  <r_j_QM_Dipole_(debye)> (1)
1.93001369720448

>  <r_j_QM_Dipole_X_(debye)> (1)
-0.210470719138243

>  <r_j_QM_Dipole_Y_(debye)> (1)
-1.85125964625365

>  <r_j_QM_Dipole_Z_(debye)> (1)
0.503480555667381

>  <r_j_Lowest_Frequency_(cm-1)> (1)
76.2732041471768

>  <r_j_Highest_Frequency_(cm-1)> (1)
3116.75206691659

>  <r_j_2nd_Lowest_Frequency_(cm-1)> (1)
96.3943066827217

>  <i_j_Num_Negative_Frequencies> (1)
0

>  <r_j_Zero_Point_Energy_(kcal/mol)> (1)
189.62641598091

>  <r_j_Entropy_(cal/mol/K)_298.15K_1.00E+00atm> (1)
110.977211576808

>  <r_j_Enthalpy_(kcal/mol)_298.15K_1.00E+00atm> (1)
9.09334710116823

>  <r_j_Free_Energy_(kcal/mol)_298.15K_1.00E+00atm> (1)
-23.9945085304571

>  <r_j_Internal_Energy_(kcal/mol)_298.15K_1.00E+00atm> (1)
8.50086151234095

>  <r_j_Heat_Capacity_(cal/mol/K)_298.15K_1.00E+00atm> (1)
55.827973247359

>  <r_j_ln(Q)_298.15K_1.00E+00atm> (1)
40.4980458308702

>  <r_j_Total_Internal_Energy_(au)_298.15K_1.00E+00atm> (1)
-619.715284130132

>  <r_j_Total_Enthalpy_(au)_298.15K_1.00E+00atm> (1)
-619.71433994424

>  <r_j_Total_Free_Energy_(au)_298.15K_1.00E+00atm> (1)
-619.767068798884

>  <r_lp_tautomer_probability> (1)
1

>  <r_epik_Ionization_Penalty> (1)
  0.0000

>  <r_epik_Ionization_Penalty_Charging> (1)
  0.0000

>  <r_epik_Ionization_Penalty_Neutral> (1)
  0.0000

>  <r_epik_State_Penalty> (1)
  0.0000

>  <r_epik_Charging_Adjusted_Penalty> (1)
0

>  <i_epik_Tot_Q> (1)
0

>  <i_epik_Tot_abs_Q> (1)
0

>  <s_lp_Force_Field> (1)
S-OPLS

>  <r_lp_Energy> (1)
38.024206

>  <b_lp_Chiralities_Consistent> (1)
1

>  <s_epik_Chemistry_Notes> (1)
This compound has an ester and may undergo hydrolysis at high or low pH.

$$$$
