6478_Hexachlorocyclopentadiene
                    3D
 Schrodinger Suite 2021-3.
 11 11  0  0  1  0            999 V2000
    2.6121   -0.8674    2.1155 C   0  0  0  0  0  0
    1.8531   -1.9780    2.0850 C   0  0  0  0  0  0
    0.3950   -1.5818    2.2653 C   0  0  0  0  0  0
    0.4591   -0.0677    2.4022 C   0  0  0  0  0  0
    1.7437    0.3226    2.3130 C   0  0  0  0  0  0
    2.3484    1.9268    2.4047 Cl  0  0  0  0  0  0
   -0.9368    0.8975    2.6298 Cl  0  0  0  0  0  0
   -0.5797   -2.0529    0.8224 Cl  0  0  0  0  0  0
   -0.2920   -2.3311    3.7554 Cl  0  0  0  0  0  0
    2.3484   -3.6047    1.8829 Cl  0  0  0  0  0  0
    4.3190   -0.7739    1.9573 Cl  0  0  0  0  0  0
  1  5  1  0  0  0
  1  2  2  0  0  0
  1 11  1  0  0  0
  2  3  1  0  0  0
  2 10  1  0  0  0
  3  4  1  0  0  0
  3  8  1  0  0  0
  3  9  1  0  0  0
  4  5  2  0  0  0
  4  7  1  0  0  0
  5  6  1  0  0  0
M  END
>  <i_m_Spin_multiplicity> (1)
1

>  <s_j_Task> (1)
Single Point

>  <s_j_QM_Method> (1)
DFT(b3lyp-d3)

>  <s_j_QM_Basis> (1)
cc-pvtz(-f)

>  <i_j_Number_of_canonical_orbitals> (1)
274

>  <i_j_Geometry_convergence_category> (1)
0

>  <r_j_Gas_Phase_Energy> (1)
-2951.93101479319

>  <r_j_Final_Energy> (1)
-2951.93101479319

>  <r_j_HOMO> (1)
-0.268712998011494

>  <r_j_LUMO> (1)
-0.12293687319236

>  <r_j_Polarizability> (1)
128.731973529853

>  <r_j_QM_Dipole_(debye)> (1)
0.769993833986811

>  <r_j_QM_Dipole_X_(debye)> (1)
0.620281334343795

>  <r_j_QM_Dipole_Y_(debye)> (1)
0.455882977903266

>  <r_j_QM_Dipole_Z_(debye)> (1)
-0.0176714770304977

>  <r_j_Lowest_Frequency_(cm-1)> (1)
64.6954797223703

>  <r_j_Highest_Frequency_(cm-1)> (1)
1612.41231488123

>  <r_j_2nd_Lowest_Frequency_(cm-1)> (1)
82.163751189832

>  <i_j_Num_Negative_Frequencies> (1)
0

>  <r_j_Zero_Point_Energy_(kcal/mol)> (1)
22.5790883880208

>  <r_j_Entropy_(cal/mol/K)_298.15K_1.00E+00atm> (1)
107.371499916044

>  <r_j_Enthalpy_(kcal/mol)_298.15K_1.00E+00atm> (1)
7.62392776986173

>  <r_j_Free_Energy_(kcal/mol)_298.15K_1.00E+00atm> (1)
-24.3888849301068

>  <r_j_Internal_Energy_(kcal/mol)_298.15K_1.00E+00atm> (1)
7.03144218103445

>  <r_j_Heat_Capacity_(cal/mol/K)_298.15K_1.00E+00atm> (1)
37.7689143074048

>  <r_j_ln(Q)_298.15K_1.00E+00atm> (1)
41.1636761973916

>  <r_j_Total_Internal_Energy_(au)_298.15K_1.00E+00atm> (1)
-2951.8838274088

>  <r_j_Total_Enthalpy_(au)_298.15K_1.00E+00atm> (1)
-2951.88288322291

>  <r_j_Total_Free_Energy_(au)_298.15K_1.00E+00atm> (1)
-2951.93389888758

>  <r_lp_tautomer_probability> (1)
1

>  <r_epik_Ionization_Penalty> (1)
  0.0000

>  <r_epik_Ionization_Penalty_Charging> (1)
  0.0000

>  <r_epik_Ionization_Penalty_Neutral> (1)
  0.0000

>  <r_epik_State_Penalty> (1)
  0.0000

>  <r_epik_Charging_Adjusted_Penalty> (1)
0

>  <i_epik_Tot_Q> (1)
0

>  <i_epik_Tot_abs_Q> (1)
0

>  <s_lp_Force_Field> (1)
S-OPLS

>  <r_lp_Energy> (1)
-3.3583

>  <b_lp_Chiralities_Consistent> (1)
1

$$$$
