6492_Dicyclopentadiene
                    3D
 Schrodinger Suite 2021-3.
 22 24  0  0  1  0            999 V2000
   -0.2680    1.5166    0.0701 C   0  0  0  0  0  0
    1.1802    1.9294   -0.0429 C   0  0  0  0  0  0
    2.0066    0.8843   -0.1307 C   0  0  0  0  0  0
    1.2859   -0.4376   -0.1128 C   0  0  0  0  0  0
   -0.2333   -0.0378    0.0191 C   0  0  0  0  0  0
   -0.8575   -0.6689   -1.2738 C   0  0  0  0  0  0
    0.2784   -0.4382   -2.3001 C   0  0  0  0  0  0
    1.3168   -1.2333   -1.4752 C   0  0  0  0  0  0
    0.5341   -2.5153   -1.2202 C   0  0  0  0  0  0
   -0.7572   -2.1800   -1.1001 C   0  0  0  0  0  0
   -0.8718    1.9400   -0.7452 H   0  0  0  0  0  0
   -0.7179    1.8841    1.0019 H   0  0  0  0  0  0
    1.4900    2.9711   -0.0553 H   0  0  0  0  0  0
    3.0872    0.9524   -0.2237 H   0  0  0  0  0  0
    1.6406   -1.0794    0.7019 H   0  0  0  0  0  0
   -0.6951   -0.4641    0.9126 H   0  0  0  0  0  0
   -1.8453   -0.2750   -1.5251 H   0  0  0  0  0  0
    0.0696   -0.8967   -3.2705 H   0  0  0  0  0  0
    0.5454    0.6135   -2.4405 H   0  0  0  0  0  0
    2.3154   -1.3477   -1.9033 H   0  0  0  0  0  0
    0.9798   -3.4899   -1.0518 H   0  0  0  0  0  0
   -1.5807   -2.8252   -0.8136 H   0  0  0  0  0  0
  1  5  1  0  0  0
  1  2  1  0  0  0
  1 11  1  0  0  0
  1 12  1  0  0  0
  2  3  2  0  0  0
  2 13  1  0  0  0
  3  4  1  0  0  0
  3 14  1  0  0  0
  4  8  1  0  0  0
  4  5  1  0  0  0
  4 15  1  0  0  0
  5  6  1  0  0  0
  5 16  1  0  0  0
  6 10  1  0  0  0
  6  7  1  0  0  0
  6 17  1  0  0  0
  7  8  1  0  0  0
  7 18  1  0  0  0
  7 19  1  0  0  0
  8  9  1  0  0  0
  8 20  1  0  0  0
  9 10  2  0  0  0
  9 21  1  0  0  0
 10 22  1  0  0  0
M  END
>  <i_m_Spin_multiplicity> (1)
1

>  <s_j_Task> (1)
Single Point

>  <s_j_QM_Method> (1)
DFT(b3lyp-d3)

>  <s_j_QM_Basis> (1)
cc-pvtz(-f)

>  <i_j_Number_of_canonical_orbitals> (1)
331

>  <i_j_Geometry_convergence_category> (1)
0

>  <r_j_Gas_Phase_Energy> (1)
-388.369823595178

>  <r_j_Final_Energy> (1)
-388.369823595178

>  <r_j_HOMO> (1)
-0.232170360117746

>  <r_j_LUMO> (1)
0.00371704618666588

>  <r_j_Polarizability> (1)
101.517923647617

>  <r_j_QM_Dipole_(debye)> (1)
0.281913561805513

>  <r_j_QM_Dipole_X_(debye)> (1)
-0.0636453542060056

>  <r_j_QM_Dipole_Y_(debye)> (1)
0.177699280905336

>  <r_j_QM_Dipole_Z_(debye)> (1)
0.209397924496853

>  <r_j_Lowest_Frequency_(cm-1)> (1)
170.645406707683

>  <r_j_Highest_Frequency_(cm-1)> (1)
3163.29561270521

>  <r_j_2nd_Lowest_Frequency_(cm-1)> (1)
231.898790347808

>  <i_j_Num_Negative_Frequencies> (1)
0

>  <r_j_Zero_Point_Energy_(kcal/mol)> (1)
120.720174482799

>  <r_j_Entropy_(cal/mol/K)_298.15K_1.00E+00atm> (1)
81.9452138461963

>  <r_j_Enthalpy_(kcal/mol)_298.15K_1.00E+00atm> (1)
4.93358393693033

>  <r_j_Free_Energy_(kcal/mol)_298.15K_1.00E+00atm> (1)
-19.4983815713131

>  <r_j_Internal_Energy_(kcal/mol)_298.15K_1.00E+00atm> (1)
4.34109834810306

>  <r_j_Heat_Capacity_(cal/mol/K)_298.15K_1.00E+00atm> (1)
30.8481623228506

>  <r_j_ln(Q)_298.15K_1.00E+00atm> (1)
32.9094613253073

>  <r_j_Total_Internal_Energy_(au)_298.15K_1.00E+00atm> (1)
-388.170525769711

>  <r_j_Total_Enthalpy_(au)_298.15K_1.00E+00atm> (1)
-388.169581583819

>  <r_j_Total_Free_Energy_(au)_298.15K_1.00E+00atm> (1)
-388.208516399429

>  <r_lp_tautomer_probability> (1)
1

>  <r_epik_Ionization_Penalty> (1)
  0.0000

>  <r_epik_Ionization_Penalty_Charging> (1)
  0.0000

>  <r_epik_Ionization_Penalty_Neutral> (1)
  0.0000

>  <r_epik_State_Penalty> (1)
  0.0000

>  <r_epik_Charging_Adjusted_Penalty> (1)
0

>  <i_epik_Tot_Q> (1)
0

>  <i_epik_Tot_abs_Q> (1)
0

>  <s_lp_Force_Field> (1)
S-OPLS

>  <r_lp_Energy> (1)
20.0026

>  <b_lp_Chiralities_Consistent> (1)
1

$$$$
