6497_Dimethyl sulphate
                    3D
 Schrodinger Suite 2021-3.
 13 12  0  0  1  0            999 V2000
   -0.5831    1.2073   -0.0027 C   0  0  0  0  0  0
    0.1046   -0.0715    0.0023 O   0  0  0  0  0  0
    1.7155    0.0705    0.0009 S   0  0  2  0  0  0
    2.1715    0.6478   -1.2567 O   0  0  0  0  0  0
    2.1744    0.6436    1.2593 O   0  0  0  0  0  0
    1.9451   -1.5301   -0.0018 O   0  0  0  0  0  0
    3.3474   -1.9078   -0.0023 C   0  0  0  0  0  0
   -1.6420    0.9535   -0.0005 H   0  0  0  0  0  0
   -0.3286    1.7706   -0.9045 H   0  0  0  0  0  0
   -0.3271    1.7783    0.8939 H   0  0  0  0  0  0
    3.3422   -2.9967   -0.0041 H   0  0  0  0  0  0
    3.8413   -1.5314    0.8976 H   0  0  0  0  0  0
    3.8415   -1.5284   -0.9007 H   0  0  0  0  0  0
  1  2  1  0  0  0
  1  8  1  0  0  0
  1  9  1  0  0  0
  1 10  1  0  0  0
  2  3  1  0  0  0
  3  4  2  0  0  0
  3  5  2  0  0  0
  3  6  1  0  0  0
  6  7  1  0  0  0
  7 11  1  0  0  0
  7 12  1  0  0  0
  7 13  1  0  0  0
M  END
>  <i_m_Spin_multiplicity> (1)
1

>  <s_j_Task> (1)
Single Point

>  <s_j_QM_Method> (1)
DFT(b3lyp-d3)

>  <s_j_QM_Basis> (1)
cc-pvtz(-f)

>  <i_j_Number_of_canonical_orbitals> (1)
219

>  <i_j_Geometry_convergence_category> (1)
0

>  <r_j_Gas_Phase_Energy> (1)
-779.023273780689

>  <r_j_Final_Energy> (1)
-779.023273780689

>  <r_j_HOMO> (1)
-0.30421110161208

>  <r_j_LUMO> (1)
0.0127465917199938

>  <r_j_Polarizability> (1)
56.7991711344792

>  <r_j_QM_Dipole_(debye)> (1)
1.25841200380681

>  <r_j_QM_Dipole_X_(debye)> (1)
-0.786397343782124

>  <r_j_QM_Dipole_Y_(debye)> (1)
-0.982394992325812

>  <r_j_QM_Dipole_Z_(debye)> (1)
-0.00894807636596808

>  <r_j_Lowest_Frequency_(cm-1)> (1)
79.7116121584153

>  <r_j_Highest_Frequency_(cm-1)> (1)
3120.80435942683

>  <r_j_2nd_Lowest_Frequency_(cm-1)> (1)
92.7542163205893

>  <i_j_Num_Negative_Frequencies> (1)
0

>  <r_j_Zero_Point_Energy_(kcal/mol)> (1)
59.5229334119926

>  <r_j_Entropy_(cal/mol/K)_298.15K_1.00E+00atm> (1)
87.1529721579911

>  <r_j_Enthalpy_(kcal/mol)_298.15K_1.00E+00atm> (1)
5.59735404715221

>  <r_j_Free_Energy_(kcal/mol)_298.15K_1.00E+00atm> (1)
-20.3873046017528

>  <r_j_Internal_Energy_(kcal/mol)_298.15K_1.00E+00atm> (1)
5.00486845832494

>  <r_j_Heat_Capacity_(cal/mol/K)_298.15K_1.00E+00atm> (1)
27.4584567470974

>  <r_j_ln(Q)_298.15K_1.00E+00atm> (1)
34.4097898517769

>  <r_j_Total_Internal_Energy_(au)_298.15K_1.00E+00atm> (1)
-778.920442182195

>  <r_j_Total_Enthalpy_(au)_298.15K_1.00E+00atm> (1)
-778.919497996303

>  <r_j_Total_Free_Energy_(au)_298.15K_1.00E+00atm> (1)
-778.96090718595

>  <r_lp_tautomer_probability> (1)
1

>  <r_epik_Ionization_Penalty> (1)
  0.0000

>  <r_epik_Ionization_Penalty_Charging> (1)
  0.0000

>  <r_epik_Ionization_Penalty_Neutral> (1)
  0.0000

>  <r_epik_State_Penalty> (1)
  0.0000

>  <r_epik_Charging_Adjusted_Penalty> (1)
0

>  <i_epik_Tot_Q> (1)
0

>  <i_epik_Tot_abs_Q> (1)
0

>  <s_lp_Force_Field> (1)
S-OPLS

>  <r_lp_Energy> (1)
4.97385

>  <b_lp_Chiralities_Consistent> (1)
1

$$$$
