6537497_Chlorinated paraffin
                    3D
 Schrodinger Suite 2021-3.
 74 73  0  0  1  0            999 V2000
  -11.1013   -2.3100    3.8327 C   0  0  0  0  0  0
  -10.6043   -1.6772    2.5299 C   0  0  0  0  0  0
   -9.1372   -1.2423    2.6152 C   0  0  0  0  0  0
   -8.5674   -0.6426    1.3306 C   0  0  0  0  0  0
   -7.0696   -0.3481    1.4101 C   0  0  0  0  0  0
   -6.4435    0.1329    0.0975 C   0  0  0  0  0  0
   -4.9331    0.3520    0.2219 C   0  0  0  0  0  0
   -4.2584    0.7869   -1.0790 C   0  0  0  0  0  0
   -2.7283    0.7517   -1.0449 C   0  0  0  0  0  0
   -2.0817    1.6069    0.0564 C   0  0  0  0  0  0
   -0.5556    1.6401   -0.0566 C   0  0  0  0  0  0
    0.1069    0.2853    0.1687 C   0  0  0  0  0  0
    1.6237    0.2624   -0.0355 C   0  0  0  0  0  0
    2.2313   -1.1325    0.0960 C   0  0  0  0  0  0
    3.7549   -1.1499    0.0052 C   0  0  0  0  0  0
    4.3652   -2.5313    0.2545 C   0  0  0  0  0  0
    5.8839   -2.6006    0.1231 C   0  0  0  0  0  0
    6.4114   -4.0267    0.2728 C   0  0  0  0  0  0
    7.9166   -4.1992    0.0515 C   0  0  0  0  0  0
    8.3310   -5.6699    0.1628 C   0  0  0  0  0  0
    9.8209   -5.9429   -0.0353 C   0  0  0  0  0  0
   10.1475   -7.4372   -0.0531 C   0  0  0  0  0  0
   11.6290   -7.8073   -0.2140 C   0  0  0  0  0  0
   12.2847   -7.2238   -1.4695 C   0  0  0  0  0  0
   10.7777   -5.1126    1.3042 Cl  0  0  0  0  0  0
    6.6649   -1.5118    1.3890 Cl  0  0  0  0  0  0
    1.5282   -2.2323   -1.2213 Cl  0  0  0  0  0  0
    0.0887    2.8559    1.1683 Cl  0  0  0  0  0  0
   -4.8308    2.4725   -1.5514 Cl  0  0  0  0  0  0
   -9.4730    0.9122    0.9247 Cl  0  0  0  0  0  0
  -12.1498   -2.6135    3.7516 H   0  0  0  0  0  0
  -11.0228   -1.6042    4.6675 H   0  0  0  0  0  0
  -10.5156   -3.1990    4.0945 H   0  0  0  0  0  0
  -10.7205   -2.3904    1.7024 H   0  0  0  0  0  0
  -11.2239   -0.8100    2.2788 H   0  0  0  0  0  0
   -9.0030   -0.5221    3.4323 H   0  0  0  0  0  0
   -8.5164   -2.1159    2.8623 H   0  0  0  0  0  0
   -8.7772   -1.3013    0.4813 H   0  0  0  0  0  0
   -6.8951    0.3879    2.2049 H   0  0  0  0  0  0
   -6.5792   -1.2791    1.7298 H   0  0  0  0  0  0
   -6.6409   -0.6060   -0.6922 H   0  0  0  0  0  0
   -6.9216    1.0640   -0.2186 H   0  0  0  0  0  0
   -4.7260    1.0907    1.0044 H   0  0  0  0  0  0
   -4.4473   -0.5841    0.5353 H   0  0  0  0  0  0
   -4.6045    0.1554   -1.9022 H   0  0  0  0  0  0
   -2.4514   -0.3029   -0.9220 H   0  0  0  0  0  0
   -2.3510    1.0633   -2.0257 H   0  0  0  0  0  0
   -2.4636    2.6291   -0.0121 H   0  0  0  0  0  0
   -2.3500    1.2285    1.0488 H   0  0  0  0  0  0
   -0.2591    2.0515   -1.0266 H   0  0  0  0  0  0
   -0.1437   -0.0676    1.1773 H   0  0  0  0  0  0
   -0.3465   -0.4179   -0.5368 H   0  0  0  0  0  0
    1.8812    0.6733   -1.0195 H   0  0  0  0  0  0
    2.1049    0.9023    0.7134 H   0  0  0  0  0  0
    1.9028   -1.6014    1.0291 H   0  0  0  0  0  0
    4.0596   -0.7692   -0.9775 H   0  0  0  0  0  0
    4.1339   -0.4432    0.7530 H   0  0  0  0  0  0
    4.0798   -2.8915    1.2509 H   0  0  0  0  0  0
    3.9511   -3.2415   -0.4704 H   0  0  0  0  0  0
    6.2049   -2.1731   -0.8323 H   0  0  0  0  0  0
    6.1352   -4.3989    1.2674 H   0  0  0  0  0  0
    5.8627   -4.6415   -0.4552 H   0  0  0  0  0  0
    8.1911   -3.8127   -0.9401 H   0  0  0  0  0  0
    8.4672   -3.6040    0.7848 H   0  0  0  0  0  0
    8.0289   -6.0714    1.1383 H   0  0  0  0  0  0
    7.7962   -6.2585   -0.5969 H   0  0  0  0  0  0
   10.1736   -5.4595   -0.9504 H   0  0  0  0  0  0
    9.7513   -7.8897    0.8641 H   0  0  0  0  0  0
    9.5762   -7.8659   -0.8896 H   0  0  0  0  0  0
   12.1800   -7.4788    0.6734 H   0  0  0  0  0  0
   11.7008   -8.9016   -0.2370 H   0  0  0  0  0  0
   13.3056   -7.5996   -1.5877 H   0  0  0  0  0  0
   12.3446   -6.1317   -1.4198 H   0  0  0  0  0  0
   11.7244   -7.4905   -2.3737 H   0  0  0  0  0  0
  1  2  1  0  0  0
  1 31  1  0  0  0
  1 32  1  0  0  0
  1 33  1  0  0  0
  2  3  1  0  0  0
  2 34  1  0  0  0
  2 35  1  0  0  0
  3  4  1  0  0  0
  3 36  1  0  0  0
  3 37  1  0  0  0
  4  5  1  0  0  0
  4 30  1  0  0  0
  4 38  1  0  0  0
  5  6  1  0  0  0
  5 39  1  0  0  0
  5 40  1  0  0  0
  6  7  1  0  0  0
  6 41  1  0  0  0
  6 42  1  0  0  0
  7  8  1  0  0  0
  7 43  1  0  0  0
  7 44  1  0  0  0
  8  9  1  0  0  0
  8 29  1  0  0  0
  8 45  1  0  0  0
  9 10  1  0  0  0
  9 46  1  0  0  0
  9 47  1  0  0  0
 10 11  1  0  0  0
 10 48  1  0  0  0
 10 49  1  0  0  0
 11 12  1  0  0  0
 11 28  1  0  0  0
 11 50  1  0  0  0
 12 13  1  0  0  0
 12 51  1  0  0  0
 12 52  1  0  0  0
 13 14  1  0  0  0
 13 53  1  0  0  0
 13 54  1  0  0  0
 14 15  1  0  0  0
 14 27  1  0  0  0
 14 55  1  0  0  0
 15 16  1  0  0  0
 15 56  1  0  0  0
 15 57  1  0  0  0
 16 17  1  0  0  0
 16 58  1  0  0  0
 16 59  1  0  0  0
 17 18  1  0  0  0
 17 26  1  0  0  0
 17 60  1  0  0  0
 18 19  1  0  0  0
 18 61  1  0  0  0
 18 62  1  0  0  0
 19 20  1  0  0  0
 19 63  1  0  0  0
 19 64  1  0  0  0
 20 21  1  0  0  0
 20 65  1  0  0  0
 20 66  1  0  0  0
 21 22  1  0  0  0
 21 25  1  0  0  0
 21 67  1  0  0  0
 22 23  1  0  0  0
 22 68  1  0  0  0
 22 69  1  0  0  0
 23 24  1  0  0  0
 23 70  1  0  0  0
 23 71  1  0  0  0
 24 72  1  0  0  0
 24 73  1  0  0  0
 24 74  1  0  0  0
M  END
>  <i_m_Spin_multiplicity> (1)
1

>  <s_j_Task> (1)
Single Point

>  <s_j_QM_Method> (1)
DFT(b3lyp-d3)

>  <s_j_QM_Basis> (1)
cc-pvtz(-f)

>  <i_j_Number_of_canonical_orbitals> (1)
1101

>  <i_j_Geometry_convergence_category> (1)
3

>  <r_j_Gas_Phase_Energy> (1)
-3702.93067458249

>  <r_j_Final_Energy> (1)
-3702.93067458249

>  <r_j_HOMO> (1)
-0.283987429381672

>  <r_j_LUMO> (1)
-0.0196037760411932

>  <r_j_Polarizability> (1)
367.054283607754

>  <r_j_QM_Dipole_(debye)> (1)
6.16001062082674

>  <r_j_QM_Dipole_X_(debye)> (1)
-0.30764379564403

>  <r_j_QM_Dipole_Y_(debye)> (1)
-6.0067149554211

>  <r_j_QM_Dipole_Z_(debye)> (1)
-1.33058693365764

>  <r_j_Lowest_Frequency_(cm-1)> (1)
19.993070366779

>  <r_j_Highest_Frequency_(cm-1)> (1)
3060.84866298926

>  <r_j_2nd_Lowest_Frequency_(cm-1)> (1)
28.8309489142245

>  <i_j_Num_Negative_Frequencies> (1)
0

>  <r_j_Zero_Point_Energy_(kcal/mol)> (1)
406.968405570724

>  <r_j_Entropy_(cal/mol/K)_298.15K_1.00E+00atm> (1)
213.597331894154

>  <r_j_Enthalpy_(kcal/mol)_298.15K_1.00E+00atm> (1)
22.9106634807827

>  <r_j_Free_Energy_(kcal/mol)_298.15K_1.00E+00atm> (1)
-40.7733810234594

>  <r_j_Internal_Energy_(kcal/mol)_298.15K_1.00E+00atm> (1)
22.3181778919554

>  <r_j_Heat_Capacity_(cal/mol/K)_298.15K_1.00E+00atm> (1)
134.646545004166

>  <r_j_ln(Q)_298.15K_1.00E+00atm> (1)
68.8175067754197

>  <r_j_Total_Internal_Energy_(au)_298.15K_1.00E+00atm> (1)
-3702.24656286149

>  <r_j_Total_Enthalpy_(au)_298.15K_1.00E+00atm> (1)
-3702.2456186756

>  <r_j_Total_Free_Energy_(au)_298.15K_1.00E+00atm> (1)
-3702.34710566113

>  <r_lp_tautomer_probability> (1)
1

>  <r_epik_Ionization_Penalty> (1)
  0.0000

>  <r_epik_Ionization_Penalty_Charging> (1)
  0.0000

>  <r_epik_Ionization_Penalty_Neutral> (1)
  0.0000

>  <r_epik_State_Penalty> (1)
  0.0000

>  <r_epik_Charging_Adjusted_Penalty> (1)
0

>  <i_epik_Tot_Q> (1)
0

>  <i_epik_Tot_abs_Q> (1)
0

>  <s_lp_Force_Field> (1)
S-OPLS

>  <r_lp_Energy> (1)
6.765825

>  <b_lp_Chiralities_Consistent> (1)
1

$$$$
