6549_3,7-Dimethylocta-1,6-Dien-3-Ol
                    3D
 Schrodinger Suite 2021-3.
 29 28  0  0  1  0            999 V2000
   -1.3494    3.5302   -1.0146 C   0  0  0  0  0  0
   -0.8913    2.1036   -1.2022 C   0  0  0  0  0  0
   -0.4054    1.3915   -0.1744 C   0  0  0  0  0  0
    0.1131   -0.0205   -0.1849 C   0  0  0  0  0  0
    1.6496   -0.0722   -0.1068 C   0  0  0  0  0  0
    2.2201   -1.5031    0.0561 C   0  0  0  0  0  0
    3.7540   -1.4514    0.1867 C   0  0  0  0  0  0
    1.8503   -2.3519   -1.1386 C   0  0  0  0  0  0
    1.1331   -3.4726   -1.1020 C   0  0  0  0  0  0
    1.6615   -2.1259    1.2186 O   0  0  0  0  0  0
   -1.0330    1.5855   -2.6121 C   0  0  0  0  0  0
   -0.7815    4.2145   -1.6595 H   0  0  0  0  0  0
   -1.2362    3.8668    0.0200 H   0  0  0  0  0  0
   -2.4049    3.6452   -1.2960 H   0  0  0  0  0  0
   -0.3378    1.8936    0.7925 H   0  0  0  0  0  0
   -0.2852   -0.5713    0.6758 H   0  0  0  0  0  0
   -0.2188   -0.5688   -1.0706 H   0  0  0  0  0  0
    2.0819    0.3933   -1.0013 H   0  0  0  0  0  0
    1.9962    0.5323    0.7450 H   0  0  0  0  0  0
    4.2187   -1.0340   -0.7125 H   0  0  0  0  0  0
    4.1450   -2.4592    0.3485 H   0  0  0  0  0  0
    4.0451   -0.8210    1.0360 H   0  0  0  0  0  0
    2.2280   -1.9715   -2.0874 H   0  0  0  0  0  0
    0.7498   -3.8602   -0.1647 H   0  0  0  0  0  0
    0.9134   -4.0305   -2.0073 H   0  0  0  0  0  0
    1.9018   -1.5806    1.9791 H   0  0  0  0  0  0
   -0.4691    2.2183   -3.3104 H   0  0  0  0  0  0
   -2.0812    1.6257   -2.9369 H   0  0  0  0  0  0
   -0.6818    0.5592   -2.7332 H   0  0  0  0  0  0
  1  2  1  0  0  0
  1 12  1  0  0  0
  1 13  1  0  0  0
  1 14  1  0  0  0
  2  3  2  0  0  0
  2 11  1  0  0  0
  3  4  1  0  0  0
  3 15  1  0  0  0
  4  5  1  0  0  0
  4 16  1  0  0  0
  4 17  1  0  0  0
  5  6  1  0  0  0
  5 18  1  0  0  0
  5 19  1  0  0  0
  6  7  1  0  0  0
  6  8  1  0  0  0
  6 10  1  0  0  0
  7 20  1  0  0  0
  7 21  1  0  0  0
  7 22  1  0  0  0
  8  9  2  0  0  0
  8 23  1  0  0  0
  9 24  1  0  0  0
  9 25  1  0  0  0
 10 26  1  0  0  0
 11 27  1  0  0  0
 11 28  1  0  0  0
 11 29  1  0  0  0
M  END
>  <i_m_Spin_multiplicity> (1)
1

>  <s_j_Task> (1)
Single Point

>  <s_j_QM_Method> (1)
DFT(b3lyp-d3)

>  <s_j_QM_Basis> (1)
cc-pvtz(-f)

>  <i_j_Number_of_canonical_orbitals> (1)
411

>  <i_j_Geometry_convergence_category> (1)
0

>  <r_j_Gas_Phase_Energy> (1)
-467.280746473457

>  <r_j_Final_Energy> (1)
-467.280746473457

>  <r_j_HOMO> (1)
-0.220887354464995

>  <r_j_LUMO> (1)
0.00057165040501065

>  <r_j_Polarizability> (1)
126.947348107709

>  <r_j_QM_Dipole_(debye)> (1)
1.52985728052165

>  <r_j_QM_Dipole_X_(debye)> (1)
0.83681719299188

>  <r_j_QM_Dipole_Y_(debye)> (1)
1.27747979201812

>  <r_j_QM_Dipole_Z_(debye)> (1)
-0.090805645549318

>  <r_j_Lowest_Frequency_(cm-1)> (1)
60.8485844098505

>  <r_j_Highest_Frequency_(cm-1)> (1)
3761.84730719963

>  <r_j_2nd_Lowest_Frequency_(cm-1)> (1)
68.1807099669307

>  <i_j_Num_Negative_Frequencies> (1)
0

>  <r_j_Zero_Point_Energy_(kcal/mol)> (1)
162.224759266689

>  <r_j_Entropy_(cal/mol/K)_298.15K_1.00E+00atm> (1)
108.923133439397

>  <r_j_Enthalpy_(kcal/mol)_298.15K_1.00E+00atm> (1)
8.70776241802512

>  <r_j_Free_Energy_(kcal/mol)_298.15K_1.00E+00atm> (1)
-23.767669816931

>  <r_j_Internal_Energy_(kcal/mol)_298.15K_1.00E+00atm> (1)
8.11527682919784

>  <r_j_Heat_Capacity_(cal/mol/K)_298.15K_1.00E+00atm> (1)
50.246097450201

>  <r_j_ln(Q)_298.15K_1.00E+00atm> (1)
40.1151863693008

>  <r_j_Total_Internal_Energy_(au)_298.15K_1.00E+00atm> (1)
-467.009292345289

>  <r_j_Total_Enthalpy_(au)_298.15K_1.00E+00atm> (1)
-467.008348159397

>  <r_j_Total_Free_Energy_(au)_298.15K_1.00E+00atm> (1)
-467.060101055229

>  <r_lp_tautomer_probability> (1)
1

>  <r_epik_Ionization_Penalty> (1)
  0.0000

>  <r_epik_Ionization_Penalty_Charging> (1)
  0.0000

>  <r_epik_Ionization_Penalty_Neutral> (1)
  0.0000

>  <r_epik_State_Penalty> (1)
  0.0000

>  <r_epik_Charging_Adjusted_Penalty> (1)
0

>  <i_epik_Tot_Q> (1)
0

>  <i_epik_Tot_abs_Q> (1)
0

>  <s_lp_Force_Field> (1)
S-OPLS

>  <r_lp_Energy> (1)
-3.195749

>  <b_lp_Chiralities_Consistent> (1)
1

$$$$
