6556_Isopentane
                    3D
 Schrodinger Suite 2021-3.
 17 16  0  0  1  0            999 V2000
   -0.6226    1.4439    0.0522 C   0  0  0  0  0  0
   -0.0195    0.0373   -0.0261 C   0  0  0  0  0  0
    1.5204   -0.0037   -0.0478 C   0  0  0  0  0  0
    2.1048    0.7009   -1.2809 C   0  0  0  0  0  0
    2.0197   -1.4535    0.0284 C   0  0  0  0  0  0
   -1.7125    1.4002    0.1465 H   0  0  0  0  0  0
   -0.3950    2.0364   -0.8394 H   0  0  0  0  0  0
   -0.2354    1.9895    0.9208 H   0  0  0  0  0  0
   -0.3714   -0.5494    0.8329 H   0  0  0  0  0  0
   -0.3990   -0.4775   -0.9207 H   0  0  0  0  0  0
    1.8790    0.5266    0.8478 H   0  0  0  0  0  0
    1.7424    0.2287   -2.2028 H   0  0  0  0  0  0
    3.1985    0.6408   -1.2851 H   0  0  0  0  0  0
    1.8325    1.7599   -1.3184 H   0  0  0  0  0  0
    1.6854   -2.0253   -0.8462 H   0  0  0  0  0  0
    1.6403   -1.9611    0.9221 H   0  0  0  0  0  0
    3.1139   -1.4979    0.0548 H   0  0  0  0  0  0
  1  2  1  0  0  0
  1  6  1  0  0  0
  1  7  1  0  0  0
  1  8  1  0  0  0
  2  3  1  0  0  0
  2  9  1  0  0  0
  2 10  1  0  0  0
  3  4  1  0  0  0
  3  5  1  0  0  0
  3 11  1  0  0  0
  4 12  1  0  0  0
  4 13  1  0  0  0
  4 14  1  0  0  0
  5 15  1  0  0  0
  5 16  1  0  0  0
  5 17  1  0  0  0
M  END
>  <i_m_Spin_multiplicity> (1)
1

>  <s_j_Task> (1)
Single Point

>  <s_j_QM_Method> (1)
DFT(b3lyp-d3)

>  <s_j_QM_Basis> (1)
cc-pvtz(-f)

>  <i_j_Number_of_canonical_orbitals> (1)
223

>  <i_j_Geometry_convergence_category> (1)
3

>  <r_j_Gas_Phase_Energy> (1)
-197.85350909108

>  <r_j_Final_Energy> (1)
-197.85350909108

>  <r_j_HOMO> (1)
-0.313890491374749

>  <r_j_LUMO> (1)
0.0324005303099237

>  <r_j_Polarizability> (1)
63.3206064151989

>  <r_j_QM_Dipole_(debye)> (1)
0.0892869086113182

>  <r_j_QM_Dipole_X_(debye)> (1)
-0.0102062910089126

>  <r_j_QM_Dipole_Y_(debye)> (1)
0.0235929259623145

>  <r_j_QM_Dipole_Z_(debye)> (1)
0.0855064764666631

>  <r_j_Lowest_Frequency_(cm-1)> (1)
148.083760930488

>  <r_j_Highest_Frequency_(cm-1)> (1)
3057.62096513829

>  <r_j_2nd_Lowest_Frequency_(cm-1)> (1)
272.169178713634

>  <i_j_Num_Negative_Frequencies> (1)
0

>  <r_j_Zero_Point_Energy_(kcal/mol)> (1)
100.31251405664

>  <r_j_Entropy_(cal/mol/K)_298.15K_1.00E+00atm> (1)
77.1460857397342

>  <r_j_Enthalpy_(kcal/mol)_298.15K_1.00E+00atm> (1)
4.69897138966808

>  <r_j_Free_Energy_(kcal/mol)_298.15K_1.00E+00atm> (1)
-18.3021340736337

>  <r_j_Internal_Energy_(kcal/mol)_298.15K_1.00E+00atm> (1)
4.10648580084081

>  <r_j_Heat_Capacity_(cal/mol/K)_298.15K_1.00E+00atm> (1)
24.3443143567277

>  <r_j_ln(Q)_298.15K_1.00E+00atm> (1)
30.8904290986379

>  <r_j_Total_Internal_Energy_(au)_298.15K_1.00E+00atm> (1)
-197.687106821712

>  <r_j_Total_Enthalpy_(au)_298.15K_1.00E+00atm> (1)
-197.68616263582

>  <r_j_Total_Free_Energy_(au)_298.15K_1.00E+00atm> (1)
-197.722817230791

>  <r_lp_tautomer_probability> (1)
1

>  <r_epik_Ionization_Penalty> (1)
  0.0000

>  <r_epik_Ionization_Penalty_Charging> (1)
  0.0000

>  <r_epik_Ionization_Penalty_Neutral> (1)
  0.0000

>  <r_epik_State_Penalty> (1)
  0.0000

>  <r_epik_Charging_Adjusted_Penalty> (1)
0

>  <i_epik_Tot_Q> (1)
0

>  <i_epik_Tot_abs_Q> (1)
0

>  <s_lp_Force_Field> (1)
S-OPLS

>  <r_lp_Energy> (1)
1.76957

>  <b_lp_Chiralities_Consistent> (1)
1

$$$$
