6560_Isobutyl alcohol
                    3D
 Schrodinger Suite 2021-3.
 15 14  0  0  1  0            999 V2000
   -0.4911   -0.7404   -1.2440 C   0  0  0  0  0  0
    0.0256    0.0276   -0.0213 C   0  0  0  0  0  0
   -0.5075    1.4650    0.0088 C   0  0  0  0  0  0
    1.5541    0.0078    0.0121 C   0  0  0  0  0  0
    1.9877    0.6265    1.2203 O   0  0  0  0  0  0
   -0.1516   -0.2690   -2.1747 H   0  0  0  0  0  0
   -1.5856   -0.7532   -1.2625 H   0  0  0  0  0  0
   -0.1434   -1.7795   -1.2481 H   0  0  0  0  0  0
   -0.3144   -0.4875    0.8880 H   0  0  0  0  0  0
   -0.2040    2.0072   -0.8959 H   0  0  0  0  0  0
   -0.1157    2.0041    0.8742 H   0  0  0  0  0  0
   -1.6017    1.4781    0.0539 H   0  0  0  0  0  0
    1.9111   -1.0339   -0.0509 H   0  0  0  0  0  0
    1.9420    0.5411   -0.8738 H   0  0  0  0  0  0
    2.9517    0.6668    1.2090 H   0  0  0  0  0  0
  1  2  1  0  0  0
  1  6  1  0  0  0
  1  7  1  0  0  0
  1  8  1  0  0  0
  2  3  1  0  0  0
  2  4  1  0  0  0
  2  9  1  0  0  0
  3 10  1  0  0  0
  3 11  1  0  0  0
  3 12  1  0  0  0
  4  5  1  0  0  0
  4 13  1  0  0  0
  4 14  1  0  0  0
  5 15  1  0  0  0
M  END
>  <i_m_Spin_multiplicity> (1)
1

>  <s_j_Task> (1)
Single Point

>  <s_j_QM_Method> (1)
DFT(b3lyp-d3)

>  <s_j_QM_Basis> (1)
cc-pvtz(-f)

>  <i_j_Number_of_canonical_orbitals> (1)
205

>  <i_j_Geometry_convergence_category> (1)
1

>  <r_j_Gas_Phase_Energy> (1)
-233.766576633859

>  <r_j_Final_Energy> (1)
-233.766576633859

>  <r_j_HOMO> (1)
-0.275348314247546

>  <r_j_LUMO> (1)
0.0293799647165143

>  <r_j_Polarizability> (1)
55.0373626166225

>  <r_j_QM_Dipole_(debye)> (1)
1.39355915450352

>  <r_j_QM_Dipole_X_(debye)> (1)
0.958448223931589

>  <r_j_QM_Dipole_Y_(debye)> (1)
-0.493321984090204

>  <r_j_QM_Dipole_Z_(debye)> (1)
-0.883186016168875

>  <r_j_Lowest_Frequency_(cm-1)> (1)
158.428358557467

>  <r_j_Highest_Frequency_(cm-1)> (1)
3779.39195464708

>  <r_j_2nd_Lowest_Frequency_(cm-1)> (1)
275.890129438062

>  <i_j_Num_Negative_Frequencies> (1)
0

>  <r_j_Zero_Point_Energy_(kcal/mol)> (1)
85.6368804145106

>  <r_j_Entropy_(cal/mol/K)_298.15K_1.00E+00atm> (1)
76.4508773261974

>  <r_j_Enthalpy_(kcal/mol)_298.15K_1.00E+00atm> (1)
4.5824283648245

>  <r_j_Free_Energy_(kcal/mol)_298.15K_1.00E+00atm> (1)
-18.2114007099812

>  <r_j_Internal_Energy_(kcal/mol)_298.15K_1.00E+00atm> (1)
3.98994277599723

>  <r_j_Heat_Capacity_(cal/mol/K)_298.15K_1.00E+00atm> (1)
23.1419983890168

>  <r_j_ln(Q)_298.15K_1.00E+00atm> (1)
30.7372888951234

>  <r_j_Total_Internal_Energy_(au)_298.15K_1.00E+00atm> (1)
-233.623747198647

>  <r_j_Total_Enthalpy_(au)_298.15K_1.00E+00atm> (1)
-233.622803012754

>  <r_j_Total_Free_Energy_(au)_298.15K_1.00E+00atm> (1)
-233.659127291773

>  <r_lp_tautomer_probability> (1)
1

>  <r_epik_Ionization_Penalty> (1)
  0.0000

>  <r_epik_Ionization_Penalty_Charging> (1)
  0.0000

>  <r_epik_Ionization_Penalty_Neutral> (1)
  0.0000

>  <r_epik_State_Penalty> (1)
  0.0000

>  <r_epik_Charging_Adjusted_Penalty> (1)
0

>  <i_epik_Tot_Q> (1)
0

>  <i_epik_Tot_abs_Q> (1)
0

>  <s_lp_Force_Field> (1)
S-OPLS

>  <r_lp_Energy> (1)
0.117959

>  <b_lp_Chiralities_Consistent> (1)
1

$$$$
