6562_2-methyl-2-propenal
                    3D
 Schrodinger Suite 2021-3.
 11 10  0  0  1  0            999 V2000
   -0.0181    0.0248    0.0000 C   0  0  0  0  0  0
    1.4934   -0.0079    0.0000 C   0  0  0  0  0  0
    2.2183   -1.1356    0.0000 C   0  0  0  0  0  0
    2.2244    1.2962    0.0000 C   0  0  0  0  0  0
    3.4337    1.4178    0.0000 O   0  0  0  0  0  0
   -0.3960    1.0527    0.0000 H   0  0  0  0  0  0
   -0.4281   -0.4758    0.8830 H   0  0  0  0  0  0
   -0.4281   -0.4758   -0.8830 H   0  0  0  0  0  0
    1.7570   -2.1189    0.0000 H   0  0  0  0  0  0
    3.3027   -1.0803    0.0000 H   0  0  0  0  0  0
    1.5661    2.1953    0.0000 H   0  0  0  0  0  0
  1  2  1  0  0  0
  1  6  1  0  0  0
  1  7  1  0  0  0
  1  8  1  0  0  0
  2  3  2  0  0  0
  2  4  1  0  0  0
  3  9  1  0  0  0
  3 10  1  0  0  0
  4  5  2  0  0  0
  4 11  1  0  0  0
M  END
>  <i_m_Spin_multiplicity> (1)
1

>  <s_j_Task> (1)
Single Point

>  <s_j_QM_Method> (1)
DFT(b3lyp-d3)

>  <s_j_QM_Basis> (1)
cc-pvtz(-f)

>  <i_j_Number_of_canonical_orbitals> (1)
168

>  <i_j_Geometry_convergence_category> (1)
0

>  <r_j_Gas_Phase_Energy> (1)
-231.315283439149

>  <r_j_Final_Energy> (1)
-231.315283439149

>  <r_j_HOMO> (1)
-0.261547076600092

>  <r_j_LUMO> (1)
-0.0780086250001551

>  <r_j_Polarizability> (1)
50.0140120337682

>  <r_j_QM_Dipole_(debye)> (1)
2.99433421763731

>  <r_j_QM_Dipole_X_(debye)> (1)
-2.71505977182466

>  <r_j_QM_Dipole_Y_(debye)> (1)
-1.26273031250057

>  <r_j_QM_Dipole_Z_(debye)> (1)
-1.50092689449453e-05

>  <r_j_Lowest_Frequency_(cm-1)> (1)
115.667977513671

>  <r_j_Highest_Frequency_(cm-1)> (1)
3189.88050068969

>  <r_j_2nd_Lowest_Frequency_(cm-1)> (1)
179.097437352439

>  <i_j_Num_Negative_Frequencies> (1)
0

>  <r_j_Zero_Point_Energy_(kcal/mol)> (1)
55.6662189411753

>  <r_j_Entropy_(cal/mol/K)_298.15K_1.00E+00atm> (1)
74.1778517283235

>  <r_j_Enthalpy_(kcal/mol)_298.15K_1.00E+00atm> (1)
4.13846683383935

>  <r_j_Free_Energy_(kcal/mol)_298.15K_1.00E+00atm> (1)
-17.9776596589603

>  <r_j_Internal_Energy_(kcal/mol)_298.15K_1.00E+00atm> (1)
3.54598124501208

>  <r_j_Heat_Capacity_(cal/mol/K)_298.15K_1.00E+00atm> (1)
19.0682177295423

>  <r_j_ln(Q)_298.15K_1.00E+00atm> (1)
30.3427796354407

>  <r_j_Total_Internal_Energy_(au)_298.15K_1.00E+00atm> (1)
-231.220922791195

>  <r_j_Total_Enthalpy_(au)_298.15K_1.00E+00atm> (1)
-231.219978605303

>  <r_j_Total_Free_Energy_(au)_298.15K_1.00E+00atm> (1)
-231.255222896505

>  <r_lp_tautomer_probability> (1)
1

>  <r_epik_Ionization_Penalty> (1)
  0.0000

>  <r_epik_Ionization_Penalty_Charging> (1)
  0.0000

>  <r_epik_Ionization_Penalty_Neutral> (1)
  0.0000

>  <r_epik_State_Penalty> (1)
  0.0000

>  <r_epik_Charging_Adjusted_Penalty> (1)
0

>  <i_epik_Tot_Q> (1)
0

>  <i_epik_Tot_abs_Q> (1)
0

>  <s_lp_Force_Field> (1)
S-OPLS

>  <r_lp_Energy> (1)
4.02086

>  <b_lp_Chiralities_Consistent> (1)
1

$$$$
