6564_1,2-dichloropropane
                    3D
 Schrodinger Suite 2021-3.
 11 10  0  0  1  0            999 V2000
   -0.0233    0.0092    0.0208 C   0  0  0  0  0  0
    1.5015   -0.0410   -0.0087 C   0  0  0  0  0  0
    2.0483    0.6583   -1.2458 C   0  0  0  0  0  0
    3.8426    0.8810   -1.2105 Cl  0  0  0  0  0  0
    2.0466   -1.7837    0.0286 Cl  0  0  0  0  0  0
   -0.3608    1.0503    0.0704 H   0  0  0  0  0  0
   -0.4048   -0.5213    0.8954 H   0  0  0  0  0  0
   -0.4454   -0.4555   -0.8748 H   0  0  0  0  0  0
    1.9259    0.4107    0.8904 H   0  0  0  0  0  0
    1.8055    0.0968   -2.1495 H   0  0  0  0  0  0
    1.6137    1.6588   -1.3127 H   0  0  0  0  0  0
  1  2  1  0  0  0
  1  6  1  0  0  0
  1  7  1  0  0  0
  1  8  1  0  0  0
  2  3  1  0  0  0
  2  5  1  0  0  0
  2  9  1  0  0  0
  3  4  1  0  0  0
  3 10  1  0  0  0
  3 11  1  0  0  0
M  END
>  <i_m_Spin_multiplicity> (1)
1

>  <s_j_Task> (1)
Single Point

>  <s_j_QM_Method> (1)
DFT(b3lyp-d3)

>  <s_j_QM_Basis> (1)
cc-pvtz(-f)

>  <i_j_Number_of_canonical_orbitals> (1)
177

>  <i_j_Geometry_convergence_category> (1)
0

>  <r_j_Gas_Phase_Energy> (1)
-1038.45693749571

>  <r_j_Final_Energy> (1)
-1038.45693749571

>  <r_j_HOMO> (1)
-0.293842535239135

>  <r_j_LUMO> (1)
-0.00353684862595296

>  <r_j_Polarizability> (1)
60.7498887097443

>  <r_j_QM_Dipole_(debye)> (1)
3.07380132002369

>  <r_j_QM_Dipole_X_(debye)> (1)
-2.65277287196467

>  <r_j_QM_Dipole_Y_(debye)> (1)
1.55243067241168

>  <r_j_QM_Dipole_Z_(debye)> (1)
0.0317750232589151

>  <r_j_Lowest_Frequency_(cm-1)> (1)
118.77926771312

>  <r_j_Highest_Frequency_(cm-1)> (1)
3092.53929320391

>  <r_j_2nd_Lowest_Frequency_(cm-1)> (1)
204.422343337243

>  <i_j_Num_Negative_Frequencies> (1)
0

>  <r_j_Zero_Point_Energy_(kcal/mol)> (1)
53.8247608067965

>  <r_j_Entropy_(cal/mol/K)_298.15K_1.00E+00atm> (1)
78.8471233709213

>  <r_j_Enthalpy_(kcal/mol)_298.15K_1.00E+00atm> (1)
4.35384271423401

>  <r_j_Free_Energy_(kcal/mol)_298.15K_1.00E+00atm> (1)
-19.1544271188062

>  <r_j_Internal_Energy_(kcal/mol)_298.15K_1.00E+00atm> (1)
3.76135712540674

>  <r_j_Heat_Capacity_(cal/mol/K)_298.15K_1.00E+00atm> (1)
20.4527393818083

>  <r_j_ln(Q)_298.15K_1.00E+00atm> (1)
32.3289333614327

>  <r_j_Total_Internal_Energy_(au)_298.15K_1.00E+00atm> (1)
-1038.36516817479

>  <r_j_Total_Enthalpy_(au)_298.15K_1.00E+00atm> (1)
-1038.3642239889

>  <r_j_Total_Free_Energy_(au)_298.15K_1.00E+00atm> (1)
-1038.40168680174

>  <r_lp_tautomer_probability> (1)
1

>  <r_epik_Ionization_Penalty> (1)
  0.0000

>  <r_epik_Ionization_Penalty_Charging> (1)
  0.0000

>  <r_epik_Ionization_Penalty_Neutral> (1)
  0.0000

>  <r_epik_State_Penalty> (1)
  0.0000

>  <r_epik_Charging_Adjusted_Penalty> (1)
0

>  <i_epik_Tot_Q> (1)
0

>  <i_epik_Tot_abs_Q> (1)
0

>  <s_lp_Force_Field> (1)
S-OPLS

>  <r_lp_Energy> (1)
-0.27128

>  <b_lp_Chiralities_Consistent> (1)
1

$$$$
