6573_1,1-dichloropropane
                    3D
 Schrodinger Suite 2021-3.
 11 10  0  0  1  0            999 V2000
   -0.0425    0.0379    0.0109 C   0  0  0  0  0  0
    1.4874   -0.0086   -0.0374 C   0  0  0  0  0  0
    2.0407   -1.4275   -0.0193 C   0  0  0  0  0  0
    3.8452   -1.4086    0.1166 Cl  0  0  0  0  0  0
    1.5371   -2.3619   -1.4864 Cl  0  0  0  0  0  0
   -0.3841    1.0754    0.0654 H   0  0  0  0  0  0
   -0.4276   -0.4885    0.8910 H   0  0  0  0  0  0
   -0.4826   -0.4201   -0.8781 H   0  0  0  0  0  0
    1.8699    0.5021   -0.9265 H   0  0  0  0  0  0
    1.9083    0.5027    0.8357 H   0  0  0  0  0  0
    1.6801   -2.0003    0.8350 H   0  0  0  0  0  0
  1  2  1  0  0  0
  1  6  1  0  0  0
  1  7  1  0  0  0
  1  8  1  0  0  0
  2  3  1  0  0  0
  2  9  1  0  0  0
  2 10  1  0  0  0
  3  4  1  0  0  0
  3  5  1  0  0  0
  3 11  1  0  0  0
M  END
>  <i_m_Spin_multiplicity> (1)
1

>  <s_j_Task> (1)
Single Point

>  <s_j_QM_Method> (1)
DFT(b3lyp-d3)

>  <s_j_QM_Basis> (1)
cc-pvtz(-f)

>  <i_j_Number_of_canonical_orbitals> (1)
177

>  <i_j_Geometry_convergence_category> (1)
0

>  <r_j_Gas_Phase_Energy> (1)
-1038.45360830164

>  <r_j_Final_Energy> (1)
-1038.45360830164

>  <r_j_HOMO> (1)
-0.311342529965621

>  <r_j_LUMO> (1)
-0.0231522027635168

>  <r_j_Polarizability> (1)
61.338555409326

>  <r_j_QM_Dipole_(debye)> (1)
2.28058072795105

>  <r_j_QM_Dipole_X_(debye)> (1)
-1.47937237397643

>  <r_j_QM_Dipole_Y_(debye)> (1)
1.27433102385425

>  <r_j_QM_Dipole_Z_(debye)> (1)
1.17838290782736

>  <r_j_Lowest_Frequency_(cm-1)> (1)
155.94158368415

>  <r_j_Highest_Frequency_(cm-1)> (1)
3082.16654685784

>  <r_j_2nd_Lowest_Frequency_(cm-1)> (1)
227.797121186877

>  <i_j_Num_Negative_Frequencies> (1)
0

>  <r_j_Zero_Point_Energy_(kcal/mol)> (1)
53.7460276020104

>  <r_j_Entropy_(cal/mol/K)_298.15K_1.00E+00atm> (1)
78.6364648694673

>  <r_j_Enthalpy_(kcal/mol)_298.15K_1.00E+00atm> (1)
4.36858549029668

>  <r_j_Free_Energy_(kcal/mol)_298.15K_1.00E+00atm> (1)
-19.076876510535

>  <r_j_Internal_Energy_(kcal/mol)_298.15K_1.00E+00atm> (1)
3.77609990146941

>  <r_j_Heat_Capacity_(cal/mol/K)_298.15K_1.00E+00atm> (1)
20.611119721535

>  <r_j_ln(Q)_298.15K_1.00E+00atm> (1)
32.1980430752661

>  <r_j_Total_Internal_Energy_(au)_298.15K_1.00E+00atm> (1)
-1038.36194095596

>  <r_j_Total_Enthalpy_(au)_298.15K_1.00E+00atm> (1)
-1038.36099677007

>  <r_j_Total_Free_Energy_(au)_298.15K_1.00E+00atm> (1)
-1038.39835949226

>  <r_lp_tautomer_probability> (1)
1

>  <r_epik_Ionization_Penalty> (1)
  0.0000

>  <r_epik_Ionization_Penalty_Charging> (1)
  0.0000

>  <r_epik_Ionization_Penalty_Neutral> (1)
  0.0000

>  <r_epik_State_Penalty> (1)
  0.0000

>  <r_epik_Charging_Adjusted_Penalty> (1)
0

>  <i_epik_Tot_Q> (1)
0

>  <i_epik_Tot_abs_Q> (1)
0

>  <s_lp_Force_Field> (1)
S-OPLS

>  <r_lp_Energy> (1)
0.15242

>  <b_lp_Chiralities_Consistent> (1)
1

$$$$
