6579_Acrylamide
                    3D
 Schrodinger Suite 2021-3.
 10  9  0  0  1  0            999 V2000
   -0.6687    1.1541    0.0000 C   0  0  0  0  0  0
   -0.0132   -0.0065    0.0000 C   0  0  0  0  0  0
    1.4841   -0.0313    0.0000 C   0  0  0  0  0  0
    2.1715    0.9825    0.0000 O   0  0  0  0  0  0
    2.0351   -1.2845    0.0000 N   0  0  0  0  0  0
   -0.1112    2.0860    0.0000 H   0  0  0  0  0  0
   -1.7528    1.2016    0.0000 H   0  0  0  0  0  0
   -0.5505   -0.9536    0.0000 H   0  0  0  0  0  0
    1.4838   -2.1267    0.0000 H   0  0  0  0  0  0
    3.0405   -1.3577    0.0000 H   0  0  0  0  0  0
  1  2  2  0  0  0
  1  6  1  0  0  0
  1  7  1  0  0  0
  2  3  1  0  0  0
  2  8  1  0  0  0
  3  4  2  0  0  0
  3  5  1  0  0  0
  5  9  1  0  0  0
  5 10  1  0  0  0
M  END
>  <i_m_Spin_multiplicity> (1)
1

>  <s_j_Task> (1)
Single Point

>  <s_j_QM_Method> (1)
DFT(b3lyp-d3)

>  <s_j_QM_Basis> (1)
cc-pvtz(-f)

>  <i_j_Number_of_canonical_orbitals> (1)
159

>  <i_j_Geometry_convergence_category> (1)
0

>  <r_j_Gas_Phase_Energy> (1)
-247.391859894115

>  <r_j_Final_Energy> (1)
-247.391859894115

>  <r_j_HOMO> (1)
-0.259964544943118

>  <r_j_LUMO> (1)
-0.0444000718065483

>  <r_j_Polarizability> (1)
46.0711926183362

>  <r_j_QM_Dipole_(debye)> (1)
3.61733056844636

>  <r_j_QM_Dipole_X_(debye)> (1)
-1.53740733296612

>  <r_j_QM_Dipole_Y_(debye)> (1)
-3.27436392809384

>  <r_j_QM_Dipole_Z_(debye)> (1)
-1.88772701712522e-05

>  <r_j_Lowest_Frequency_(cm-1)> (1)
158.693448151268

>  <r_j_Highest_Frequency_(cm-1)> (1)
3684.12658780641

>  <r_j_2nd_Lowest_Frequency_(cm-1)> (1)
174.816861899423

>  <i_j_Num_Negative_Frequencies> (1)
0

>  <r_j_Zero_Point_Energy_(kcal/mol)> (1)
49.3195211073652

>  <r_j_Entropy_(cal/mol/K)_298.15K_1.00E+00atm> (1)
73.2295857299272

>  <r_j_Enthalpy_(kcal/mol)_298.15K_1.00E+00atm> (1)
4.05827027338136

>  <r_j_Free_Energy_(kcal/mol)_298.15K_1.00E+00atm> (1)
-17.7751307119964

>  <r_j_Internal_Energy_(kcal/mol)_298.15K_1.00E+00atm> (1)
3.46578468455408

>  <r_j_Heat_Capacity_(cal/mol/K)_298.15K_1.00E+00atm> (1)
18.880584069586

>  <r_j_ln(Q)_298.15K_1.00E+00atm> (1)
30.0009503137103

>  <r_j_Total_Internal_Energy_(au)_298.15K_1.00E+00atm> (1)
-247.307741154374

>  <r_j_Total_Enthalpy_(au)_298.15K_1.00E+00atm> (1)
-247.306796968481

>  <r_j_Total_Free_Energy_(au)_298.15K_1.00E+00atm> (1)
-247.341590707906

>  <r_lp_tautomer_probability> (1)
1

>  <r_epik_Ionization_Penalty> (1)
  0.0000

>  <r_epik_Ionization_Penalty_Charging> (1)
  0.0000

>  <r_epik_Ionization_Penalty_Neutral> (1)
  0.0000

>  <r_epik_State_Penalty> (1)
  0.0000

>  <r_epik_Charging_Adjusted_Penalty> (1)
0

>  <i_epik_Tot_Q> (1)
0

>  <i_epik_Tot_abs_Q> (1)
0

>  <s_lp_Force_Field> (1)
S-OPLS

>  <r_lp_Energy> (1)
-0.498712

>  <b_lp_Chiralities_Consistent> (1)
1

$$$$
