6581_Acrylic acid
                    3D
 Schrodinger Suite 2021-3.
 28 28  0  0  1  0            999 V2000
   -3.0092    2.5702   -0.1482 C   0  0  0  0  0  0
   -2.2081    1.2927   -0.0693 C   0  0  0  0  0  0
   -0.8095    1.3019   -0.0724 C   0  0  0  0  0  0
   -0.0640    0.1232   -0.0091 C   0  0  0  0  0  0
   -0.7328   -1.1117    0.0705 C   0  0  0  0  0  0
   -2.1285   -1.1446    0.0718 C   0  0  0  0  0  0
   -2.8458    0.0491    0.0025 C   0  0  0  0  0  0
    0.0779   -2.2182    0.1529 O   0  0  0  0  0  0
   -0.5370   -3.5090    0.1151 C   0  0  0  0  0  0
    1.4484    0.1399   -0.0104 C   0  0  0  0  0  0
    1.9562   -0.2096    1.3872 C   0  0  0  0  0  0
    3.4866   -0.3380    1.3898 N   0  3  1  0  0  0
   -2.3634    3.4519   -0.1719 H   0  0  0  0  0  0
   -3.6807    2.6692    0.7114 H   0  0  0  0  0  0
   -3.6328    2.5891   -1.0485 H   0  0  0  0  0  0
   -0.2849    2.2526   -0.1394 H   0  0  0  0  0  0
   -2.6634   -2.0846    0.1275 H   0  0  0  0  0  0
   -3.9316    0.0066    0.0048 H   0  0  0  0  0  0
    0.2795   -4.2319    0.1326 H   0  0  0  0  0  0
   -1.1204   -3.6419   -0.8025 H   0  0  0  0  0  0
   -1.1827   -3.6691    0.9862 H   0  0  0  0  0  0
    1.8246   -0.6035   -0.7253 H   0  0  0  0  0  0
    1.8167    1.1267   -0.3128 H   0  0  0  0  0  0
    1.7112    0.5575    2.1238 H   0  0  0  0  0  0
    1.5714   -1.1778    1.7094 H   0  0  0  0  0  0
    3.8543   -0.5754    2.3170 H   0  0  0  0  0  0
    3.9301    0.5366    1.0893 H   0  0  0  0  0  0
    3.7828   -1.0709    0.7360 H   0  0  0  0  0  0
  1  2  1  0  0  0
  1 13  1  0  0  0
  1 14  1  0  0  0
  1 15  1  0  0  0
  2  7  1  0  0  0
  2  3  2  0  0  0
  3  4  1  0  0  0
  3 16  1  0  0  0
  4  5  2  0  0  0
  4 10  1  0  0  0
  5  6  1  0  0  0
  5  8  1  0  0  0
  6  7  2  0  0  0
  6 17  1  0  0  0
  7 18  1  0  0  0
  8  9  1  0  0  0
  9 19  1  0  0  0
  9 20  1  0  0  0
  9 21  1  0  0  0
 10 11  1  0  0  0
 10 22  1  0  0  0
 10 23  1  0  0  0
 11 12  1  0  0  0
 11 24  1  0  0  0
 11 25  1  0  0  0
 12 26  1  0  0  0
 12 27  1  0  0  0
 12 28  1  0  0  0
M  END
>  <i_m_Spin_multiplicity> (1)
1

>  <s_j_Task> (1)
Single Point

>  <s_j_QM_Method> (1)
DFT(b3lyp-d3)

>  <s_j_QM_Basis> (1)
cc-pvtz(-f)

>  <i_j_Number_of_canonical_orbitals> (1)
413

>  <i_j_Geometry_convergence_category> (1)
0

>  <r_j_Gas_Phase_Energy> (1)
-520.63478726796

>  <r_j_Final_Energy> (1)
-520.63478726796

>  <r_j_HOMO> (1)
-0.32987939435049

>  <r_j_LUMO> (1)
-0.18941096373105

>  <r_j_Polarizability> (1)
127.741776948298

>  <r_j_QM_Dipole_(debye)> (1)
13.3210632019978

>  <r_j_QM_Dipole_X_(debye)> (1)
12.6408570494412

>  <r_j_QM_Dipole_Y_(debye)> (1)
-0.884370421151745

>  <r_j_QM_Dipole_Z_(debye)> (1)
4.10820482028403

>  <r_j_Lowest_Frequency_(cm-1)> (1)
81.3520531065938

>  <r_j_Highest_Frequency_(cm-1)> (1)
3441.30391182985

>  <r_j_2nd_Lowest_Frequency_(cm-1)> (1)
99.0941034127648

>  <i_j_Num_Negative_Frequencies> (1)
0

>  <r_j_Zero_Point_Energy_(kcal/mol)> (1)
156.348403801739

>  <r_j_Entropy_(cal/mol/K)_298.15K_1.00E+00atm> (1)
106.521290070971

>  <r_j_Enthalpy_(kcal/mol)_298.15K_1.00E+00atm> (1)
8.23240942130545

>  <r_j_Free_Energy_(kcal/mol)_298.15K_1.00E+00atm> (1)
-23.5269132133546

>  <r_j_Internal_Energy_(kcal/mol)_298.15K_1.00E+00atm> (1)
7.63992383247817

>  <r_j_Heat_Capacity_(cal/mol/K)_298.15K_1.00E+00atm> (1)
47.1278236896975

>  <r_j_ln(Q)_298.15K_1.00E+00atm> (1)
39.7088362265859

>  <r_j_Total_Internal_Energy_(au)_298.15K_1.00E+00atm> (1)
-520.373455231593

>  <r_j_Total_Enthalpy_(au)_298.15K_1.00E+00atm> (1)
-520.372511045701

>  <r_j_Total_Free_Energy_(au)_298.15K_1.00E+00atm> (1)
-520.423122748238

>  <r_lp_tautomer_probability> (1)
1

>  <r_epik_Ionization_Penalty> (1)
  0.0011

>  <r_epik_Ionization_Penalty_Charging> (1)
  0.0011

>  <r_epik_Ionization_Penalty_Neutral> (1)
  0.0000

>  <r_epik_State_Penalty> (1)
  0.0008

>  <r_epik_Charging_Adjusted_Penalty> (1)
0.0019053

>  <i_epik_Tot_Q> (1)
1

>  <i_epik_Tot_abs_Q> (1)
1

>  <s_lp_Force_Field> (1)
S-OPLS

>  <r_lp_Energy> (1)
15.6203

>  <b_lp_Chiralities_Consistent> (1)
1

$$$$
