6584_Methyl acetate
                    3D
 Schrodinger Suite 2021-3.
 11 10  0  0  1  0            999 V2000
   -0.0576   -0.0334    0.0000 C   0  0  0  0  0  0
    1.4528   -0.0602    0.0000 C   0  0  0  0  0  0
    2.1274   -1.0668    0.0000 O   0  0  0  0  0  0
    1.9744    1.1882    0.0000 O   0  0  0  0  0  0
    3.4114    1.2444    0.0000 C   0  0  0  0  0  0
   -0.4503    0.9834    0.0000 H   0  0  0  0  0  0
   -0.4172   -0.5721    0.8809 H   0  0  0  0  0  0
   -0.4172   -0.5721   -0.8810 H   0  0  0  0  0  0
    3.6660    2.3042    0.0000 H   0  0  0  0  0  0
    3.8162    0.7504   -0.8874 H   0  0  0  0  0  0
    3.8161    0.7505    0.8875 H   0  0  0  0  0  0
  1  2  1  0  0  0
  1  6  1  0  0  0
  1  7  1  0  0  0
  1  8  1  0  0  0
  2  3  2  0  0  0
  2  4  1  0  0  0
  4  5  1  0  0  0
  5  9  1  0  0  0
  5 10  1  0  0  0
  5 11  1  0  0  0
M  END
>  <i_m_Spin_multiplicity> (1)
1

>  <s_j_Task> (1)
Single Point

>  <s_j_QM_Method> (1)
DFT(b3lyp-d3)

>  <s_j_QM_Basis> (1)
cc-pvtz(-f)

>  <i_j_Number_of_canonical_orbitals> (1)
169

>  <i_j_Geometry_convergence_category> (1)
0

>  <r_j_Gas_Phase_Energy> (1)
-268.493464050351

>  <r_j_Final_Energy> (1)
-268.493464050351

>  <r_j_HOMO> (1)
-0.2814338405543

>  <r_j_LUMO> (1)
0.00148220907208935

>  <r_j_Polarizability> (1)
43.2240441030959

>  <r_j_QM_Dipole_(debye)> (1)
1.78080628622468

>  <r_j_QM_Dipole_X_(debye)> (1)
-0.479140641061546

>  <r_j_QM_Dipole_Y_(debye)> (1)
1.71513710093956

>  <r_j_QM_Dipole_Z_(debye)> (1)
1.10037178210146e-05

>  <r_j_Lowest_Frequency_(cm-1)> (1)
164.224187083321

>  <r_j_Highest_Frequency_(cm-1)> (1)
3111.5874172754

>  <r_j_2nd_Lowest_Frequency_(cm-1)> (1)
202.709368201948

>  <i_j_Num_Negative_Frequencies> (1)
0

>  <r_j_Zero_Point_Energy_(kcal/mol)> (1)
56.2040465328109

>  <r_j_Entropy_(cal/mol/K)_298.15K_1.00E+00atm> (1)
74.1782911492269

>  <r_j_Enthalpy_(kcal/mol)_298.15K_1.00E+00atm> (1)
4.18304238493228

>  <r_j_Free_Energy_(kcal/mol)_298.15K_1.00E+00atm> (1)
-17.9332151212097

>  <r_j_Internal_Energy_(kcal/mol)_298.15K_1.00E+00atm> (1)
3.59055679610501

>  <r_j_Heat_Capacity_(cal/mol/K)_298.15K_1.00E+00atm> (1)
19.0877206680262

>  <r_j_ln(Q)_298.15K_1.00E+00atm> (1)
30.2677659328482

>  <r_j_Total_Internal_Energy_(au)_298.15K_1.00E+00atm> (1)
-268.398175283906

>  <r_j_Total_Enthalpy_(au)_298.15K_1.00E+00atm> (1)
-268.397231098014

>  <r_j_Total_Free_Energy_(au)_298.15K_1.00E+00atm> (1)
-268.432475597999

>  <r_lp_tautomer_probability> (1)
1

>  <r_epik_Ionization_Penalty> (1)
  0.0000

>  <r_epik_Ionization_Penalty_Charging> (1)
  0.0000

>  <r_epik_Ionization_Penalty_Neutral> (1)
  0.0000

>  <r_epik_State_Penalty> (1)
  0.0000

>  <r_epik_Charging_Adjusted_Penalty> (1)
0

>  <i_epik_Tot_Q> (1)
0

>  <i_epik_Tot_abs_Q> (1)
0

>  <s_lp_Force_Field> (1)
S-OPLS

>  <r_lp_Energy> (1)
-0.092305

>  <b_lp_Chiralities_Consistent> (1)
1

>  <s_epik_Chemistry_Notes> (1)
This compound has an ester and may undergo hydrolysis at high or low pH.

$$$$
