6598_Dimethylcarbamoyl chloride
                    3D
 Schrodinger Suite 2021-3.
 12 11  0  0  1  0            999 V2000
    0.0279    0.0529    0.0000 C   0  0  0  0  0  0
    1.4851   -0.0826    0.0000 N   0  0  0  0  0  0
    1.9774   -1.4544    0.0000 C   0  0  0  0  0  0
    2.2074    1.0642    0.0000 C   0  0  0  0  0  0
    1.7776    2.1878    0.0000 O   0  0  0  0  0  0
    4.0205    0.8174    0.0000 Cl  0  0  0  0  0  0
   -0.2342    1.1083    0.0000 H   0  0  0  0  0  0
   -0.3906   -0.4284    0.8909 H   0  0  0  0  0  0
   -0.3906   -0.4284   -0.8909 H   0  0  0  0  0  0
    3.0631   -1.4832    0.0000 H   0  0  0  0  0  0
    1.6079   -1.9792   -0.8889 H   0  0  0  0  0  0
    1.6079   -1.9792    0.8889 H   0  0  0  0  0  0
  1  2  1  0  0  0
  1  7  1  0  0  0
  1  8  1  0  0  0
  1  9  1  0  0  0
  2  3  1  0  0  0
  2  4  1  0  0  0
  3 10  1  0  0  0
  3 11  1  0  0  0
  3 12  1  0  0  0
  4  5  2  0  0  0
  4  6  1  0  0  0
M  END
>  <i_m_Spin_multiplicity> (1)
1

>  <s_j_Task> (1)
Single Point

>  <s_j_QM_Method> (1)
DFT(b3lyp-d3)

>  <s_j_QM_Basis> (1)
cc-pvtz(-f)

>  <i_j_Number_of_canonical_orbitals> (1)
196

>  <i_j_Geometry_convergence_category> (1)
0

>  <r_j_Gas_Phase_Energy> (1)
-708.24725853448

>  <r_j_Final_Energy> (1)
-708.24725853448

>  <r_j_HOMO> (1)
-0.272268917889749

>  <r_j_LUMO> (1)
0.00638351630336345

>  <r_j_Polarizability> (1)
60.5941982703246

>  <r_j_QM_Dipole_(debye)> (1)
4.29090087847298

>  <r_j_QM_Dipole_X_(debye)> (1)
-2.00092533701835

>  <r_j_QM_Dipole_Y_(debye)> (1)
-3.79580401818457

>  <r_j_QM_Dipole_Z_(debye)> (1)
9.59638183604115e-06

>  <r_j_Lowest_Frequency_(cm-1)> (1)
108.1076422445

>  <r_j_Highest_Frequency_(cm-1)> (1)
3143.17019715726

>  <r_j_2nd_Lowest_Frequency_(cm-1)> (1)
167.462558116999

>  <i_j_Num_Negative_Frequencies> (1)
0

>  <r_j_Zero_Point_Energy_(kcal/mol)> (1)
58.3729401240024

>  <r_j_Entropy_(cal/mol/K)_298.15K_1.00E+00atm> (1)
81.9352979521473

>  <r_j_Enthalpy_(kcal/mol)_298.15K_1.00E+00atm> (1)
4.91494382531279

>  <r_j_Free_Energy_(kcal/mol)_298.15K_1.00E+00atm> (1)
-19.5140652591199

>  <r_j_Internal_Energy_(kcal/mol)_298.15K_1.00E+00atm> (1)
4.32245823648551

>  <r_j_Heat_Capacity_(cal/mol/K)_298.15K_1.00E+00atm> (1)
23.3082136639066

>  <r_j_ln(Q)_298.15K_1.00E+00atm> (1)
32.93593232832

>  <r_j_Total_Internal_Energy_(au)_298.15K_1.00E+00atm> (1)
-708.147347056872

>  <r_j_Total_Enthalpy_(au)_298.15K_1.00E+00atm> (1)
-708.14640287098

>  <r_j_Total_Free_Energy_(au)_298.15K_1.00E+00atm> (1)
-708.185332975229

>  <r_lp_tautomer_probability> (1)
1

>  <r_epik_Ionization_Penalty> (1)
  0.0000

>  <r_epik_Ionization_Penalty_Charging> (1)
  0.0000

>  <r_epik_Ionization_Penalty_Neutral> (1)
  0.0000

>  <r_epik_State_Penalty> (1)
  0.0000

>  <r_epik_Charging_Adjusted_Penalty> (1)
0

>  <i_epik_Tot_Q> (1)
0

>  <i_epik_Tot_abs_Q> (1)
0

>  <s_lp_Force_Field> (1)
S-OPLS

>  <r_lp_Energy> (1)
6.8296

>  <b_lp_Chiralities_Consistent> (1)
1

$$$$
