66084_Octadiene
                    3D
 Schrodinger Suite 2021-3.
 22 21  0  0  1  0            999 V2000
   -2.0956    1.6516   -0.2477 C   0  0  0  0  0  0
   -0.5877    1.5028   -0.0255 C   0  0  0  0  0  0
   -0.1276    0.0407   -0.0070 C   0  0  0  0  0  0
    1.3885   -0.1106    0.2247 C   0  0  0  0  0  0
    1.8407   -1.5409    0.2044 C   0  0  0  0  0  0
    2.3970   -2.1947    1.2370 C   0  0  0  0  0  0
    2.8105   -3.5901    1.1999 C   0  0  0  0  0  0
    3.3663   -4.2469    2.2285 C   0  0  0  0  0  0
   -2.3990    2.7036   -0.2552 H   0  0  0  0  0  0
   -2.6621    1.1464    0.5429 H   0  0  0  0  0  0
   -2.3988    1.2098   -1.2039 H   0  0  0  0  0  0
   -0.0433    2.0431   -0.8120 H   0  0  0  0  0  0
   -0.3060    1.9817    0.9222 H   0  0  0  0  0  0
   -0.6658   -0.5072    0.7778 H   0  0  0  0  0  0
   -0.4005   -0.4406   -0.9567 H   0  0  0  0  0  0
    1.9172    0.4532   -0.5589 H   0  0  0  0  0  0
    1.6612    0.3550    1.1804 H   0  0  0  0  0  0
    1.6780   -2.0809   -0.7304 H   0  0  0  0  0  0
    2.5588   -1.6632    2.1760 H   0  0  0  0  0  0
    2.6463   -4.1166    0.2593 H   0  0  0  0  0  0
    3.5471   -3.7585    3.1829 H   0  0  0  0  0  0
    3.6572   -5.2894    2.1505 H   0  0  0  0  0  0
  1  2  1  0  0  0
  1  9  1  0  0  0
  1 10  1  0  0  0
  1 11  1  0  0  0
  2  3  1  0  0  0
  2 12  1  0  0  0
  2 13  1  0  0  0
  3  4  1  0  0  0
  3 14  1  0  0  0
  3 15  1  0  0  0
  4  5  1  0  0  0
  4 16  1  0  0  0
  4 17  1  0  0  0
  5  6  2  0  0  0
  5 18  1  0  0  0
  6  7  1  0  0  0
  6 19  1  0  0  0
  7  8  2  0  0  0
  7 20  1  0  0  0
  8 21  1  0  0  0
  8 22  1  0  0  0
M  END
>  <i_m_Spin_multiplicity> (1)
1

>  <s_j_Task> (1)
Single Point

>  <s_j_QM_Method> (1)
DFT(b3lyp-d3)

>  <s_j_QM_Basis> (1)
cc-pvtz(-f)

>  <i_j_Number_of_canonical_orbitals> (1)
307

>  <i_j_Geometry_convergence_category> (1)
3

>  <r_j_Gas_Phase_Energy> (1)
-313.37668420241

>  <r_j_Final_Energy> (1)
-313.37668420241

>  <r_j_HOMO> (1)
-0.247027668699137

>  <r_j_LUMO> (1)
-0.049739304496648

>  <r_j_Polarizability> (1)
106.403685063726

>  <r_j_QM_Dipole_(debye)> (1)
0.716277318917238

>  <r_j_QM_Dipole_X_(debye)> (1)
-0.342452301209314

>  <r_j_QM_Dipole_Y_(debye)> (1)
0.555417430314878

>  <r_j_QM_Dipole_Z_(debye)> (1)
-0.295450667784201

>  <r_j_Lowest_Frequency_(cm-1)> (1)
72.0151108492635

>  <r_j_Highest_Frequency_(cm-1)> (1)
3179.35149905923

>  <r_j_2nd_Lowest_Frequency_(cm-1)> (1)
130.231771067822

>  <i_j_Num_Negative_Frequencies> (1)
0

>  <r_j_Zero_Point_Energy_(kcal/mol)> (1)
124.580072383872

>  <r_j_Entropy_(cal/mol/K)_298.15K_1.00E+00atm> (1)
93.2338271294075

>  <r_j_Enthalpy_(kcal/mol)_298.15K_1.00E+00atm> (1)
6.48907370856775

>  <r_j_Free_Energy_(kcal/mol)_298.15K_1.00E+00atm> (1)
-21.3085918500651

>  <r_j_Internal_Energy_(kcal/mol)_298.15K_1.00E+00atm> (1)
5.89658811974048

>  <r_j_Heat_Capacity_(cal/mol/K)_298.15K_1.00E+00atm> (1)
34.8331044174374

>  <r_j_ln(Q)_298.15K_1.00E+00atm> (1)
35.9647428593865

>  <r_j_Total_Internal_Energy_(au)_298.15K_1.00E+00atm> (1)
-313.168756407306

>  <r_j_Total_Enthalpy_(au)_298.15K_1.00E+00atm> (1)
-313.167812221414

>  <r_j_Total_Free_Energy_(au)_298.15K_1.00E+00atm> (1)
-313.212110621498

>  <r_lp_tautomer_probability> (1)
1

>  <r_epik_Ionization_Penalty> (1)
  0.0000

>  <r_epik_Ionization_Penalty_Charging> (1)
  0.0000

>  <r_epik_Ionization_Penalty_Neutral> (1)
  0.0000

>  <r_epik_State_Penalty> (1)
  0.0000

>  <r_epik_Charging_Adjusted_Penalty> (1)
0

>  <i_epik_Tot_Q> (1)
0

>  <i_epik_Tot_abs_Q> (1)
0

>  <s_lp_Force_Field> (1)
S-OPLS

>  <r_lp_Energy> (1)
-1.056022

>  <b_lp_Chiralities_Consistent> (1)
1

$$$$
