6629_Cumene hydroperoxide
                    3D
 Schrodinger Suite 2021-3.
 23 23  0  0  1  0            999 V2000
   -0.4264   -0.7744    1.2486 C   0  0  0  0  0  0
   -0.0008   -0.0238   -0.0217 C   0  0  0  0  0  0
   -0.4851   -0.7298   -1.2956 C   0  0  0  0  0  0
   -0.4863    1.4282    0.0097 C   0  0  0  0  0  0
    0.3945    2.5138   -0.0597 C   0  0  0  0  0  0
   -0.0907    3.8228   -0.0372 C   0  0  0  0  0  0
   -1.4592    4.0695    0.0523 C   0  0  0  0  0  0
   -2.3451    2.9932    0.1178 C   0  0  0  0  0  0
   -1.8618    1.6870    0.0964 C   0  0  0  0  0  0
    1.4459    0.0810   -0.0518 O   0  0  0  0  0  0
    2.0152   -1.2522   -0.1264 O   0  0  0  0  0  0
   -1.5147   -0.8323    1.3262 H   0  0  0  0  0  0
   -0.0468   -0.2561    2.1340 H   0  0  0  0  0  0
   -0.0327   -1.7936    1.2280 H   0  0  0  0  0  0
   -1.5770   -0.7796   -1.3180 H   0  0  0  0  0  0
   -0.0849   -1.7450   -1.3348 H   0  0  0  0  0  0
   -0.1432   -0.1791   -2.1754 H   0  0  0  0  0  0
    1.4603    2.3366   -0.1342 H   0  0  0  0  0  0
    0.6089    4.6522   -0.0915 H   0  0  0  0  0  0
   -1.8337    5.0889    0.0693 H   0  0  0  0  0  0
   -3.4149    3.1697    0.1854 H   0  0  0  0  0  0
   -2.5670    0.8621    0.1443 H   0  0  0  0  0  0
    2.3661   -1.3360    0.7750 H   0  0  0  0  0  0
  1  2  1  0  0  0
  1 12  1  0  0  0
  1 13  1  0  0  0
  1 14  1  0  0  0
  2  3  1  0  0  0
  2  4  1  0  0  0
  2 10  1  0  0  0
  3 15  1  0  0  0
  3 16  1  0  0  0
  3 17  1  0  0  0
  4  9  1  0  0  0
  4  5  2  0  0  0
  5  6  1  0  0  0
  5 18  1  0  0  0
  6  7  2  0  0  0
  6 19  1  0  0  0
  7  8  1  0  0  0
  7 20  1  0  0  0
  8  9  2  0  0  0
  8 21  1  0  0  0
  9 22  1  0  0  0
 10 11  1  0  0  0
 11 23  1  0  0  0
M  END
>  <i_m_Spin_multiplicity> (1)
1

>  <s_j_Task> (1)
Single Point

>  <s_j_QM_Method> (1)
DFT(b3lyp-d3)

>  <s_j_QM_Basis> (1)
cc-pvtz(-f)

>  <i_j_Number_of_canonical_orbitals> (1)
355

>  <i_j_Geometry_convergence_category> (1)
3

>  <r_j_Gas_Phase_Energy> (1)
-500.72749370147

>  <r_j_Final_Energy> (1)
-500.72749370147

>  <r_j_HOMO> (1)
-0.238265133000025

>  <r_j_LUMO> (1)
-0.00252203542409087

>  <r_j_Polarizability> (1)
110.844303743226

>  <r_j_QM_Dipole_(debye)> (1)
1.64462039203832

>  <r_j_QM_Dipole_X_(debye)> (1)
-0.85792690131384

>  <r_j_QM_Dipole_Y_(debye)> (1)
-0.426527795711142

>  <r_j_QM_Dipole_Z_(debye)> (1)
1.33671676334073

>  <r_j_Lowest_Frequency_(cm-1)> (1)
68.9782049342508

>  <r_j_Highest_Frequency_(cm-1)> (1)
3703.7507366333

>  <r_j_2nd_Lowest_Frequency_(cm-1)> (1)
123.763000007109

>  <i_j_Num_Negative_Frequencies> (1)
0

>  <r_j_Zero_Point_Energy_(kcal/mol)> (1)
120.486263244171

>  <r_j_Entropy_(cal/mol/K)_298.15K_1.00E+00atm> (1)
97.0743744496417

>  <r_j_Enthalpy_(kcal/mol)_298.15K_1.00E+00atm> (1)
7.06003359151119

>  <r_j_Free_Energy_(kcal/mol)_298.15K_1.00E+00atm> (1)
-21.8826911506495

>  <r_j_Internal_Energy_(kcal/mol)_298.15K_1.00E+00atm> (1)
6.46754800268391

>  <r_j_Heat_Capacity_(cal/mol/K)_298.15K_1.00E+00atm> (1)
41.3255485168467

>  <r_j_ln(Q)_298.15K_1.00E+00atm> (1)
36.93371039448

>  <r_j_Total_Internal_Energy_(au)_298.15K_1.00E+00atm> (1)
-500.525179924043

>  <r_j_Total_Enthalpy_(au)_298.15K_1.00E+00atm> (1)
-500.524235738151

>  <r_j_Total_Free_Energy_(au)_298.15K_1.00E+00atm> (1)
-500.570358906208

>  <r_lp_tautomer_probability> (1)
1

>  <r_epik_Ionization_Penalty> (1)
  0.0000

>  <r_epik_Ionization_Penalty_Charging> (1)
  0.0000

>  <r_epik_Ionization_Penalty_Neutral> (1)
  0.0000

>  <r_epik_State_Penalty> (1)
  0.0000

>  <r_epik_Charging_Adjusted_Penalty> (1)
0

>  <i_epik_Tot_Q> (1)
0

>  <i_epik_Tot_abs_Q> (1)
0

>  <s_lp_Force_Field> (1)
S-OPLS

>  <r_lp_Energy> (1)
17.0485

>  <b_lp_Chiralities_Consistent> (1)
1

$$$$
