6658_Methyl methacrylate
                    3D
 Schrodinger Suite 2021-3.
 15 14  0  0  1  0            999 V2000
   -0.7100   -1.3700   -0.0008 C   0  0  0  0  0  0
   -0.0411   -0.0132   -0.0003 C   0  0  0  0  0  0
   -0.7199    1.1412    0.0000 C   0  0  0  0  0  0
    1.4561   -0.0225    0.0003 C   0  0  0  0  0  0
    2.1325   -1.0337    0.0017 O   0  0  0  0  0  0
    1.9989    1.2178   -0.0009 O   0  0  0  0  0  0
    3.4345    1.2515   -0.0002 C   0  0  0  0  0  0
    0.0354   -2.1658   -0.0033 H   0  0  0  0  0  0
   -1.3474   -1.4900   -0.8827 H   0  0  0  0  0  0
   -1.3432   -1.4922    0.8837 H   0  0  0  0  0  0
   -1.8066    1.1481   -0.0001 H   0  0  0  0  0  0
   -0.2154    2.0998    0.0006 H   0  0  0  0  0  0
    3.7043    2.3077   -0.0023 H   0  0  0  0  0  0
    3.8334    0.7508   -0.8866 H   0  0  0  0  0  0
    3.8325    0.7547    0.8888 H   0  0  0  0  0  0
  1  2  1  0  0  0
  1  8  1  0  0  0
  1  9  1  0  0  0
  1 10  1  0  0  0
  2  3  2  0  0  0
  2  4  1  0  0  0
  3 11  1  0  0  0
  3 12  1  0  0  0
  4  5  2  0  0  0
  4  6  1  0  0  0
  6  7  1  0  0  0
  7 13  1  0  0  0
  7 14  1  0  0  0
  7 15  1  0  0  0
M  END
>  <i_m_Spin_multiplicity> (1)
1

>  <s_j_Task> (1)
Single Point

>  <s_j_QM_Method> (1)
DFT(b3lyp-d3)

>  <s_j_QM_Basis> (1)
cc-pvtz(-f)

>  <i_j_Number_of_canonical_orbitals> (1)
231

>  <i_j_Geometry_convergence_category> (1)
3

>  <r_j_Gas_Phase_Energy> (1)
-345.917220649732

>  <r_j_Final_Energy> (1)
-345.917220649732

>  <r_j_HOMO> (1)
-0.27397931316657

>  <r_j_LUMO> (1)
-0.0531593890867736

>  <r_j_Polarizability> (1)
66.292331627517

>  <r_j_QM_Dipole_(debye)> (1)
1.76825634119868

>  <r_j_QM_Dipole_X_(debye)> (1)
-0.636609486451114

>  <r_j_QM_Dipole_Y_(debye)> (1)
1.64968399216669

>  <r_j_QM_Dipole_Z_(debye)> (1)
-0.00125536399576152

>  <r_j_Lowest_Frequency_(cm-1)> (1)
75.6622664598933

>  <r_j_Highest_Frequency_(cm-1)> (1)
3201.18365963412

>  <r_j_2nd_Lowest_Frequency_(cm-1)> (1)
103.11446253404

>  <i_j_Num_Negative_Frequencies> (1)
0

>  <r_j_Zero_Point_Energy_(kcal/mol)> (1)
77.0452475713765

>  <r_j_Entropy_(cal/mol/K)_298.15K_1.00E+00atm> (1)
85.7593278057514

>  <r_j_Enthalpy_(kcal/mol)_298.15K_1.00E+00atm> (1)
5.48516074736956

>  <r_j_Free_Energy_(kcal/mol)_298.15K_1.00E+00atm> (1)
-20.0839828379152

>  <r_j_Internal_Energy_(kcal/mol)_298.15K_1.00E+00atm> (1)
4.89267515854228

>  <r_j_Heat_Capacity_(cal/mol/K)_298.15K_1.00E+00atm> (1)
27.2870205298091

>  <r_j_ln(Q)_298.15K_1.00E+00atm> (1)
33.8978419334521

>  <r_j_Total_Internal_Energy_(au)_298.15K_1.00E+00atm> (1)
-345.786644257427

>  <r_j_Total_Enthalpy_(au)_298.15K_1.00E+00atm> (1)
-345.785700071534

>  <r_j_Total_Free_Energy_(au)_298.15K_1.00E+00atm> (1)
-345.826447095775

>  <r_lp_tautomer_probability> (1)
1

>  <r_epik_Ionization_Penalty> (1)
  0.0000

>  <r_epik_Ionization_Penalty_Charging> (1)
  0.0000

>  <r_epik_Ionization_Penalty_Neutral> (1)
  0.0000

>  <r_epik_State_Penalty> (1)
  0.0000

>  <r_epik_Charging_Adjusted_Penalty> (1)
0

>  <i_epik_Tot_Q> (1)
0

>  <i_epik_Tot_abs_Q> (1)
0

>  <s_lp_Force_Field> (1)
S-OPLS

>  <r_lp_Energy> (1)
4.0534

>  <b_lp_Chiralities_Consistent> (1)
1

>  <s_epik_Chemistry_Notes> (1)
This compound has an ester and may undergo hydrolysis at high or low pH.

$$$$
