66666_Divinyl benzene
                    3D
 Schrodinger Suite 2021-3.
 20 20  0  0  1  0            999 V2000
   -0.7612    1.1640   -0.0002 C   0  0  0  0  0  0
    0.0142    0.0710    0.0002 C   0  0  0  0  0  0
    1.4900    0.0151    0.0001 C   0  0  0  0  0  0
    2.2303    1.2139    0.0001 C   0  0  0  0  0  0
    3.6160    1.2261    0.0000 C   0  0  0  0  0  0
    4.3147    0.0155    0.0000 C   0  0  0  0  0  0
    3.6112   -1.1783    0.0000 C   0  0  0  0  0  0
    2.2027   -1.2199    0.0000 C   0  0  0  0  0  0
    1.5129   -2.5261    0.0000 C   0  0  0  0  0  0
    2.0724   -3.7438   -0.0002 C   0  0  0  0  0  0
   -0.3711    2.1768   -0.0007 H   0  0  0  0  0  0
   -1.8421    1.0711   -0.0001 H   0  0  0  0  0  0
   -0.5057   -0.8806    0.0006 H   0  0  0  0  0  0
    1.7028    2.1615    0.0002 H   0  0  0  0  0  0
    4.1508    2.1712    0.0000 H   0  0  0  0  0  0
    5.4006    0.0060   -0.0001 H   0  0  0  0  0  0
    4.1682   -2.1089    0.0000 H   0  0  0  0  0  0
    0.4287   -2.5010    0.0001 H   0  0  0  0  0  0
    3.1446   -3.9118   -0.0003 H   0  0  0  0  0  0
    1.4519   -4.6338   -0.0002 H   0  0  0  0  0  0
  1  2  2  0  0  0
  1 11  1  0  0  0
  1 12  1  0  0  0
  2  3  1  0  0  0
  2 13  1  0  0  0
  3  8  1  0  0  0
  3  4  2  0  0  0
  4  5  1  0  0  0
  4 14  1  0  0  0
  5  6  2  0  0  0
  5 15  1  0  0  0
  6  7  1  0  0  0
  6 16  1  0  0  0
  7  8  2  0  0  0
  7 17  1  0  0  0
  8  9  1  0  0  0
  9 10  2  0  0  0
  9 18  1  0  0  0
 10 19  1  0  0  0
 10 20  1  0  0  0
M  END
>  <i_m_Spin_multiplicity> (1)
1

>  <s_j_Task> (1)
Single Point

>  <s_j_QM_Method> (1)
DFT(b3lyp-d3)

>  <s_j_QM_Basis> (1)
cc-pvtz(-f)

>  <i_j_Number_of_canonical_orbitals> (1)
313

>  <i_j_Geometry_convergence_category> (1)
0

>  <r_j_Gas_Phase_Energy> (1)
-387.179119763095

>  <r_j_Final_Energy> (1)
-387.179119763095

>  <r_j_HOMO> (1)
-0.228737109858374

>  <r_j_LUMO> (1)
-0.0577892353415579

>  <r_j_Polarizability> (1)
122.39603171119

>  <r_j_QM_Dipole_(debye)> (1)
0.196172791093443

>  <r_j_QM_Dipole_X_(debye)> (1)
0.170403075598623

>  <r_j_QM_Dipole_Y_(debye)> (1)
0.0971933909500508

>  <r_j_QM_Dipole_Z_(debye)> (1)
-2.33998314388481e-05

>  <r_j_Lowest_Frequency_(cm-1)> (1)
-53.95004922177

>  <r_j_Highest_Frequency_(cm-1)> (1)
3188.26131436561

>  <r_j_2nd_Lowest_Frequency_(cm-1)> (1)
84.6947265978585

>  <i_j_Num_Negative_Frequencies> (1)
1

>  <r_j_Zero_Point_Energy_(kcal/mol)> (1)
103.847829294452

>  <r_j_Entropy_(cal/mol/K)_298.15K_1.00E+00atm> (1)
88.2719947677654

>  <r_j_Enthalpy_(kcal/mol)_298.15K_1.00E+00atm> (1)
5.66701076266878

>  <r_j_Free_Energy_(kcal/mol)_298.15K_1.00E+00atm> (1)
-20.6512844773405

>  <r_j_Internal_Energy_(kcal/mol)_298.15K_1.00E+00atm> (1)
5.0745251738415

>  <r_j_Heat_Capacity_(cal/mol/K)_298.15K_1.00E+00atm> (1)
32.5830392043939

>  <r_j_ln(Q)_298.15K_1.00E+00atm> (1)
34.8553363436506

>  <r_j_Total_Internal_Energy_(au)_298.15K_1.00E+00atm> (1)
-387.005540941299

>  <r_j_Total_Enthalpy_(au)_298.15K_1.00E+00atm> (1)
-387.004596755407

>  <r_j_Total_Free_Energy_(au)_298.15K_1.00E+00atm> (1)
-387.046537628809

>  <r_lp_tautomer_probability> (1)
1

>  <r_epik_Ionization_Penalty> (1)
  0.0000

>  <r_epik_Ionization_Penalty_Charging> (1)
  0.0000

>  <r_epik_Ionization_Penalty_Neutral> (1)
  0.0000

>  <r_epik_State_Penalty> (1)
  0.0000

>  <r_epik_Charging_Adjusted_Penalty> (1)
0

>  <i_epik_Tot_Q> (1)
0

>  <i_epik_Tot_abs_Q> (1)
0

>  <s_lp_Force_Field> (1)
S-OPLS

>  <r_lp_Energy> (1)
17.3026

>  <b_lp_Chiralities_Consistent> (1)
1

$$$$
