66775_Methylcyclopentadiene
                    3D
 Schrodinger Suite 2021-3.
 14 14  0  0  1  0            999 V2000
   -0.0103    0.0070    0.0001 C   0  0  0  0  0  0
    1.4918   -0.0111   -0.0001 C   0  0  0  0  0  0
    2.3229   -1.0774   -0.0001 C   0  0  0  0  0  0
    3.7174   -0.6220    0.0000 C   0  0  0  0  0  0
    3.7506    0.7263    0.0001 C   0  0  0  0  0  0
    2.3379    1.2415    0.0000 C   0  0  0  0  0  0
   -0.3965    1.0310    0.0000 H   0  0  0  0  0  0
   -0.4222   -0.4993    0.8813 H   0  0  0  0  0  0
   -0.4223   -0.4994   -0.8810 H   0  0  0  0  0  0
    2.0195   -2.1196   -0.0001 H   0  0  0  0  0  0
    4.5764   -1.2847    0.0000 H   0  0  0  0  0  0
    4.6298    1.3585    0.0002 H   0  0  0  0  0  0
    2.1240    1.8696   -0.8778 H   0  0  0  0  0  0
    2.1238    1.8697    0.8777 H   0  0  0  0  0  0
  1  2  1  0  0  0
  1  7  1  0  0  0
  1  8  1  0  0  0
  1  9  1  0  0  0
  2  6  1  0  0  0
  2  3  2  0  0  0
  3  4  1  0  0  0
  3 10  1  0  0  0
  4  5  2  0  0  0
  4 11  1  0  0  0
  5  6  1  0  0  0
  5 12  1  0  0  0
  6 13  1  0  0  0
  6 14  1  0  0  0
M  END
>  <i_m_Spin_multiplicity> (1)
1

>  <s_j_Task> (1)
Single Point

>  <s_j_QM_Method> (1)
DFT(b3lyp-d3)

>  <s_j_QM_Basis> (1)
cc-pvtz(-f)

>  <i_j_Number_of_canonical_orbitals> (1)
208

>  <i_j_Geometry_convergence_category> (1)
0

>  <r_j_Gas_Phase_Energy> (1)
-233.504331155521

>  <r_j_Final_Energy> (1)
-233.504331155521

>  <r_j_HOMO> (1)
-0.211134127141223

>  <r_j_LUMO> (1)
-0.0192434049199263

>  <r_j_Polarizability> (1)
66.4510544080045

>  <r_j_QM_Dipole_(debye)> (1)
0.716847026609603

>  <r_j_QM_Dipole_X_(debye)> (1)
-0.590426674110887

>  <r_j_QM_Dipole_Y_(debye)> (1)
0.406529207976694

>  <r_j_QM_Dipole_Z_(debye)> (1)
7.15487720579936e-05

>  <r_j_Lowest_Frequency_(cm-1)> (1)
99.7404818840734

>  <r_j_Highest_Frequency_(cm-1)> (1)
3178.73723670612

>  <r_j_2nd_Lowest_Frequency_(cm-1)> (1)
246.298670448544

>  <i_j_Num_Negative_Frequencies> (1)
0

>  <r_j_Zero_Point_Energy_(kcal/mol)> (1)
74.8848228608698

>  <r_j_Entropy_(cal/mol/K)_298.15K_1.00E+00atm> (1)
75.2306276104868

>  <r_j_Enthalpy_(kcal/mol)_298.15K_1.00E+00atm> (1)
4.20552090349969

>  <r_j_Free_Energy_(kcal/mol)_298.15K_1.00E+00atm> (1)
-18.2244907185669

>  <r_j_Internal_Energy_(kcal/mol)_298.15K_1.00E+00atm> (1)
3.61303531467242

>  <r_j_Heat_Capacity_(cal/mol/K)_298.15K_1.00E+00atm> (1)
21.386085137894

>  <r_j_ln(Q)_298.15K_1.00E+00atm> (1)
30.7593822739879

>  <r_j_Total_Internal_Energy_(au)_298.15K_1.00E+00atm> (1)
-233.379236855071

>  <r_j_Total_Enthalpy_(au)_298.15K_1.00E+00atm> (1)
-233.378292669179

>  <r_j_Total_Free_Energy_(au)_298.15K_1.00E+00atm> (1)
-233.414037168177

>  <r_lp_tautomer_probability> (1)
1

>  <r_epik_Ionization_Penalty> (1)
  0.0000

>  <r_epik_Ionization_Penalty_Charging> (1)
  0.0000

>  <r_epik_Ionization_Penalty_Neutral> (1)
  0.0000

>  <r_epik_State_Penalty> (1)
  0.0000

>  <r_epik_Charging_Adjusted_Penalty> (1)
0

>  <i_epik_Tot_Q> (1)
0

>  <i_epik_Tot_abs_Q> (1)
0

>  <s_lp_Force_Field> (1)
S-OPLS

>  <r_lp_Energy> (1)
-3.16155

>  <b_lp_Chiralities_Consistent> (1)
1

$$$$
