6693_1,8-Naphthalic anhydride
                    3D
 Schrodinger Suite 2021-3.
 21 23  0  0  1  0            999 V2000
    4.8228    1.3574    0.0088 C   0  0  0  0  0  0
    3.6451    2.0749   -0.0407 C   0  0  0  0  0  0
    2.3889    1.4150   -0.0143 C   0  0  0  0  0  0
    2.3712   -0.0094    0.0646 C   0  0  0  0  0  0
    3.5932   -0.7248    0.1142 C   0  0  0  0  0  0
    4.8006   -0.0503    0.0867 C   0  0  0  0  0  0
    3.5786   -2.2016    0.1959 C   0  0  0  0  0  0
    4.5581   -2.9016    0.2426 O   0  0  0  0  0  0
    2.3363   -2.8209    0.2203 O   0  0  0  0  0  0
    1.1098   -2.1721    0.1745 C   0  0  0  0  0  0
    0.1132   -2.8485    0.2039 O   0  0  0  0  0  0
    1.1318   -0.6954    0.0927 C   0  0  0  0  0  0
   -0.0585    0.0076    0.0440 C   0  0  0  0  0  0
   -0.0458    1.4154   -0.0341 C   0  0  0  0  0  0
    1.1494    2.1046   -0.0627 C   0  0  0  0  0  0
    5.7760    1.8757   -0.0122 H   0  0  0  0  0  0
    3.6656    3.1597   -0.1007 H   0  0  0  0  0  0
    5.7199   -0.6245    0.1260 H   0  0  0  0  0  0
   -0.9917   -0.5446    0.0672 H   0  0  0  0  0  0
   -0.9858    1.9563   -0.0719 H   0  0  0  0  0  0
    1.1558    3.1895   -0.1229 H   0  0  0  0  0  0
  1  6  1  0  0  0
  1  2  2  0  0  0
  1 16  1  0  0  0
  2  3  1  0  0  0
  2 17  1  0  0  0
  3 15  1  0  0  0
  3  4  2  0  0  0
  4 12  1  0  0  0
  4  5  1  0  0  0
  5  6  2  0  0  0
  5  7  1  0  0  0
  6 18  1  0  0  0
  7  8  2  0  0  0
  7  9  1  0  0  0
  9 10  1  0  0  0
 10 11  2  0  0  0
 10 12  1  0  0  0
 12 13  2  0  0  0
 13 14  1  0  0  0
 13 19  1  0  0  0
 14 15  2  0  0  0
 14 20  1  0  0  0
 15 21  1  0  0  0
M  END
>  <i_m_Spin_multiplicity> (1)
1

>  <s_j_Task> (1)
Single Point

>  <s_j_QM_Method> (1)
DFT(b3lyp-d3)

>  <s_j_QM_Basis> (1)
cc-pvtz(-f)

>  <i_j_Number_of_canonical_orbitals> (1)
389

>  <i_j_Geometry_convergence_category> (1)
0

>  <r_j_Gas_Phase_Energy> (1)
-686.833506774959

>  <r_j_Final_Energy> (1)
-686.833506774959

>  <r_j_HOMO> (1)
-0.259000667098766

>  <r_j_LUMO> (1)
-0.110859756518796

>  <r_j_Polarizability> (1)
141.975638276745

>  <r_j_QM_Dipole_(debye)> (1)
7.15390207487023

>  <r_j_QM_Dipole_X_(debye)> (1)
0.0892854544524677

>  <r_j_QM_Dipole_Y_(debye)> (1)
7.14241833475005

>  <r_j_QM_Dipole_Z_(debye)> (1)
-0.395225677154296

>  <r_j_Lowest_Frequency_(cm-1)> (1)
84.5490886399748

>  <r_j_Highest_Frequency_(cm-1)> (1)
3166.29003992935

>  <r_j_2nd_Lowest_Frequency_(cm-1)> (1)
148.860460514731

>  <i_j_Num_Negative_Frequencies> (1)
0

>  <r_j_Zero_Point_Energy_(kcal/mol)> (1)
93.9819211518575

>  <r_j_Entropy_(cal/mol/K)_298.15K_1.00E+00atm> (1)
97.277616878463

>  <r_j_Enthalpy_(kcal/mol)_298.15K_1.00E+00atm> (1)
6.7740476265297

>  <r_j_Free_Energy_(kcal/mol)_298.15K_1.00E+00atm> (1)
-22.229273845784

>  <r_j_Internal_Energy_(kcal/mol)_298.15K_1.00E+00atm> (1)
6.18156203770243

>  <r_j_Heat_Capacity_(cal/mol/K)_298.15K_1.00E+00atm> (1)
40.8474896435593

>  <r_j_ln(Q)_298.15K_1.00E+00atm> (1)
37.518674318785

>  <r_j_Total_Internal_Energy_(au)_298.15K_1.00E+00atm> (1)
-686.673886103116

>  <r_j_Total_Enthalpy_(au)_298.15K_1.00E+00atm> (1)
-686.672941917224

>  <r_j_Total_Free_Energy_(au)_298.15K_1.00E+00atm> (1)
-686.719161652317

>  <r_lp_tautomer_probability> (1)
1

>  <r_epik_Ionization_Penalty> (1)
  0.0000

>  <r_epik_Ionization_Penalty_Charging> (1)
  0.0000

>  <r_epik_Ionization_Penalty_Neutral> (1)
  0.0000

>  <r_epik_State_Penalty> (1)
  0.0000

>  <r_epik_Charging_Adjusted_Penalty> (1)
0

>  <i_epik_Tot_Q> (1)
0

>  <i_epik_Tot_abs_Q> (1)
0

>  <s_lp_Force_Field> (1)
S-OPLS

>  <r_lp_Energy> (1)
8.78625

>  <b_lp_Chiralities_Consistent> (1)
1

$$$$
