6697_Benzanthrone
                    3D
 Schrodinger Suite 2021-3.
 28 31  0  0  1  0            999 V2000
   -2.3890   -4.3278    0.0034 C   0  0  0  0  0  0
   -1.1645   -5.0048   -0.0116 C   0  0  0  0  0  0
    0.0127   -4.2726   -0.0191 C   0  0  0  0  0  0
   -0.0153   -2.8707   -0.0117 C   0  0  0  0  0  0
   -1.2463   -2.1741    0.0037 C   0  0  0  0  0  0
   -2.4277   -2.9395    0.0109 C   0  0  0  0  0  0
   -1.2597   -0.6967    0.0116 C   0  0  0  0  0  0
   -2.4357    0.0427    0.0269 C   0  0  0  0  0  0
   -2.4317    1.4517    0.0344 C   0  0  0  0  0  0
   -1.2443    2.1454    0.0267 C   0  0  0  0  0  0
   -0.0116    1.4444    0.0111 C   0  0  0  0  0  0
   -0.0165    0.0122    0.0034 C   0  0  0  0  0  0
    1.2329   -0.6707   -0.0123 C   0  0  0  0  0  0
    2.4233    0.0396   -0.0200 C   0  0  0  0  0  0
    2.4241    1.4452   -0.0124 C   0  0  0  0  0  0
    1.2285    2.1325    0.0028 C   0  0  0  0  0  0
    1.2861   -2.1538   -0.0208 C   0  0  0  0  0  0
    2.3564   -2.7606   -0.0346 O   0  0  0  0  0  0
   -3.3200   -4.8875    0.0093 H   0  0  0  0  0  0
   -1.1373   -6.0901   -0.0173 H   0  0  0  0  0  0
    0.9837   -4.7559   -0.0308 H   0  0  0  0  0  0
   -3.3953   -2.4519    0.0226 H   0  0  0  0  0  0
   -3.3955   -0.4600    0.0334 H   0  0  0  0  0  0
   -3.3775    1.9846    0.0464 H   0  0  0  0  0  0
   -1.2341    3.2318    0.0324 H   0  0  0  0  0  0
    3.3502   -0.5242   -0.0320 H   0  0  0  0  0  0
    3.3656    1.9856   -0.0186 H   0  0  0  0  0  0
    1.2188    3.2193    0.0087 H   0  0  0  0  0  0
  1  6  1  0  0  0
  1  2  2  0  0  0
  1 19  1  0  0  0
  2  3  1  0  0  0
  2 20  1  0  0  0
  3  4  2  0  0  0
  3 21  1  0  0  0
  4 17  1  0  0  0
  4  5  1  0  0  0
  5  6  2  0  0  0
  5  7  1  0  0  0
  6 22  1  0  0  0
  7 12  1  0  0  0
  7  8  2  0  0  0
  8  9  1  0  0  0
  8 23  1  0  0  0
  9 10  2  0  0  0
  9 24  1  0  0  0
 10 11  1  0  0  0
 10 25  1  0  0  0
 11 16  1  0  0  0
 11 12  2  0  0  0
 12 13  1  0  0  0
 13 14  2  0  0  0
 13 17  1  0  0  0
 14 15  1  0  0  0
 14 26  1  0  0  0
 15 16  2  0  0  0
 15 27  1  0  0  0
 16 28  1  0  0  0
 17 18  2  0  0  0
M  END
>  <i_m_Spin_multiplicity> (1)
1

>  <s_j_Task> (1)
Single Point

>  <s_j_QM_Method> (1)
DFT(b3lyp-d3)

>  <s_j_QM_Basis> (1)
cc-pvtz(-f)

>  <i_j_Number_of_canonical_orbitals> (1)
489

>  <i_j_Geometry_convergence_category> (1)
0

>  <r_j_Gas_Phase_Energy> (1)
-729.333537086155

>  <r_j_Final_Energy> (1)
-729.333537086155

>  <r_j_HOMO> (1)
-0.230574113836691

>  <r_j_LUMO> (1)
-0.101587432336358

>  <r_j_Polarizability> (1)
202.095213064058

>  <r_j_QM_Dipole_(debye)> (1)
3.67260015561955

>  <r_j_QM_Dipole_X_(debye)> (1)
-2.92763625852338

>  <r_j_QM_Dipole_Y_(debye)> (1)
2.21704260101774

>  <r_j_QM_Dipole_Z_(debye)> (1)
0.0407424362114056

>  <r_j_Lowest_Frequency_(cm-1)> (1)
68.8777554754627

>  <r_j_Highest_Frequency_(cm-1)> (1)
3169.34518345399

>  <r_j_2nd_Lowest_Frequency_(cm-1)> (1)
115.929821208125

>  <i_j_Num_Negative_Frequencies> (1)
0

>  <r_j_Zero_Point_Energy_(kcal/mol)> (1)
135.7912875124

>  <r_j_Entropy_(cal/mol/K)_298.15K_1.00E+00atm> (1)
104.842752398124

>  <r_j_Enthalpy_(kcal/mol)_298.15K_1.00E+00atm> (1)
7.870044911266

>  <r_j_Free_Energy_(kcal/mol)_298.15K_1.00E+00atm> (1)
-23.3888217162346

>  <r_j_Internal_Energy_(kcal/mol)_298.15K_1.00E+00atm> (1)
7.27755932243873

>  <r_j_Heat_Capacity_(cal/mol/K)_298.15K_1.00E+00atm> (1)
50.1893803583524

>  <r_j_ln(Q)_298.15K_1.00E+00atm> (1)
39.4757647397446

>  <r_j_Total_Internal_Energy_(au)_298.15K_1.00E+00atm> (1)
-729.105542364681

>  <r_j_Total_Enthalpy_(au)_298.15K_1.00E+00atm> (1)
-729.104598178789

>  <r_j_Total_Free_Energy_(au)_298.15K_1.00E+00atm> (1)
-729.154412353908

>  <r_lp_tautomer_probability> (1)
1

>  <r_epik_Ionization_Penalty> (1)
  0.0000

>  <r_epik_Ionization_Penalty_Charging> (1)
  0.0000

>  <r_epik_Ionization_Penalty_Neutral> (1)
  0.0000

>  <r_epik_State_Penalty> (1)
  0.0000

>  <r_epik_Charging_Adjusted_Penalty> (1)
0

>  <i_epik_Tot_Q> (1)
0

>  <i_epik_Tot_abs_Q> (1)
0

>  <s_lp_Force_Field> (1)
S-OPLS

>  <r_lp_Energy> (1)
31.7152

>  <b_lp_Chiralities_Consistent> (1)
1

$$$$
