670_Dihydroxyacetone
                    3D
 Schrodinger Suite 2021-3.
 12 11  0  0  1  0            999 V2000
    0.1140   -0.1355    0.2998 C   0  0  0  0  0  0
    1.6226    0.0956    0.1617 C   0  0  0  0  0  0
    2.2876    0.4285    1.1232 O   0  0  0  0  0  0
    2.3482   -0.2033   -1.1596 C   0  0  0  0  0  0
    1.5443   -0.3503   -2.3258 O   0  0  0  0  0  0
   -0.6707    0.1892   -0.8335 O   0  0  0  0  0  0
   -0.0133   -1.1892    0.6079 H   0  0  0  0  0  0
   -0.2269    0.4834    1.1338 H   0  0  0  0  0  0
    3.1343    0.5542   -1.2802 H   0  0  0  0  0  0
    2.8565   -1.1644   -1.0160 H   0  0  0  0  0  0
    1.2128    0.5279   -2.5588 H   0  0  0  0  0  0
   -0.3989   -0.4169   -1.5378 H   0  0  0  0  0  0
  1  2  1  0  0  0
  1  6  1  0  0  0
  1  7  1  0  0  0
  1  8  1  0  0  0
  2  3  2  0  0  0
  2  4  1  0  0  0
  4  5  1  0  0  0
  4  9  1  0  0  0
  4 10  1  0  0  0
  5 11  1  0  0  0
  6 12  1  0  0  0
M  END
>  <i_m_Spin_multiplicity> (1)
1

>  <s_j_Task> (1)
Single Point

>  <s_j_QM_Method> (1)
DFT(b3lyp-d3)

>  <s_j_QM_Basis> (1)
cc-pvtz(-f)

>  <i_j_Number_of_canonical_orbitals> (1)
192

>  <i_j_Geometry_convergence_category> (1)
0

>  <r_j_Gas_Phase_Energy> (1)
-343.707748882773

>  <r_j_Final_Energy> (1)
-343.707748882773

>  <r_j_HOMO> (1)
-0.250924207215181

>  <r_j_LUMO> (1)
-0.0470355541321274

>  <r_j_Polarizability> (1)
46.1543770598261

>  <r_j_QM_Dipole_(debye)> (1)
1.68722037409619

>  <r_j_QM_Dipole_X_(debye)> (1)
0.0480887741704698

>  <r_j_QM_Dipole_Y_(debye)> (1)
-0.598844225846746

>  <r_j_QM_Dipole_Z_(debye)> (1)
-1.57663745158298

>  <r_j_Lowest_Frequency_(cm-1)> (1)
113.531311865408

>  <r_j_Highest_Frequency_(cm-1)> (1)
3752.18525589298

>  <r_j_2nd_Lowest_Frequency_(cm-1)> (1)
121.762550278789

>  <i_j_Num_Negative_Frequencies> (1)
0

>  <r_j_Zero_Point_Energy_(kcal/mol)> (1)
59.4846139831666

>  <r_j_Entropy_(cal/mol/K)_298.15K_1.00E+00atm> (1)
79.7591459225815

>  <r_j_Enthalpy_(kcal/mol)_298.15K_1.00E+00atm> (1)
4.72542456031203

>  <r_j_Free_Energy_(kcal/mol)_298.15K_1.00E+00atm> (1)
-19.0547647965056

>  <r_j_Internal_Energy_(kcal/mol)_298.15K_1.00E+00atm> (1)
4.13293897148476

>  <r_j_Heat_Capacity_(cal/mol/K)_298.15K_1.00E+00atm> (1)
22.7933416635132

>  <r_j_ln(Q)_298.15K_1.00E+00atm> (1)
32.1607228189657

>  <r_j_Total_Internal_Energy_(au)_298.15K_1.00E+00atm> (1)
-343.606367858268

>  <r_j_Total_Enthalpy_(au)_298.15K_1.00E+00atm> (1)
-343.605423672376

>  <r_j_Total_Free_Energy_(au)_298.15K_1.00E+00atm> (1)
-343.643319816568

>  <r_lp_tautomer_probability> (1)
1

>  <r_epik_Ionization_Penalty> (1)
  0.0000

>  <r_epik_Ionization_Penalty_Charging> (1)
  0.0000

>  <r_epik_Ionization_Penalty_Neutral> (1)
  0.0000

>  <r_epik_State_Penalty> (1)
  0.0000

>  <r_epik_Charging_Adjusted_Penalty> (1)
0

>  <i_epik_Tot_Q> (1)
0

>  <i_epik_Tot_abs_Q> (1)
0

>  <s_lp_Force_Field> (1)
S-OPLS

>  <r_lp_Energy> (1)
14.3954

>  <b_lp_Chiralities_Consistent> (1)
1

$$$$
