6710_Aminoanthraquinone
                    3D
 Schrodinger Suite 2021-3.
 26 28  0  0  1  0            999 V2000
   -2.2784    6.1441   -0.0004 C   0  0  0  0  0  0
   -0.8797    6.1911   -0.0003 C   0  0  0  0  0  0
   -0.1399    5.0128   -0.0001 C   0  0  0  0  0  0
   -0.7912    3.7739    0.0001 C   0  0  0  0  0  0
   -2.1956    3.7281    0.0001 C   0  0  0  0  0  0
   -2.9335    4.9171   -0.0002 C   0  0  0  0  0  0
   -2.9131    2.4261    0.0002 C   0  0  0  0  0  0
   -4.1396    2.3783    0.0003 O   0  0  0  0  0  0
   -2.0856    1.1810    0.0003 C   0  0  0  0  0  0
   -0.6657    1.2369    0.0002 C   0  0  0  0  0  0
    0.0305    2.5283    0.0002 C   0  0  0  0  0  0
    1.2690    2.6255    0.0003 O   0  0  0  0  0  0
    0.0724    0.0122    0.0000 C   0  0  0  0  0  0
   -0.6477   -1.2092   -0.0003 C   0  0  0  0  0  0
   -2.0286   -1.2265   -0.0003 C   0  0  0  0  0  0
   -2.7601   -0.0323    0.0000 C   0  0  0  0  0  0
    1.4284   -0.0086   -0.0001 N   0  0  0  0  0  0
   -2.8528    7.0658   -0.0005 H   0  0  0  0  0  0
   -0.3688    7.1495   -0.0004 H   0  0  0  0  0  0
    0.9444    5.0245    0.0000 H   0  0  0  0  0  0
   -4.0160    4.8491   -0.0002 H   0  0  0  0  0  0
   -0.0886   -2.1415   -0.0005 H   0  0  0  0  0  0
   -2.5497   -2.1795   -0.0005 H   0  0  0  0  0  0
   -3.8435   -0.0256    0.0000 H   0  0  0  0  0  0
    1.9215   -0.8853   -0.0004 H   0  0  0  0  0  0
    1.9184    0.8784    0.0001 H   0  0  0  0  0  0
  1  6  1  0  0  0
  1  2  2  0  0  0
  1 18  1  0  0  0
  2  3  1  0  0  0
  2 19  1  0  0  0
  3  4  2  0  0  0
  3 20  1  0  0  0
  4 11  1  0  0  0
  4  5  1  0  0  0
  5  6  2  0  0  0
  5  7  1  0  0  0
  6 21  1  0  0  0
  7  8  2  0  0  0
  7  9  1  0  0  0
  9 16  1  0  0  0
  9 10  2  0  0  0
 10 11  1  0  0  0
 10 13  1  0  0  0
 11 12  2  0  0  0
 13 14  2  0  0  0
 13 17  1  0  0  0
 14 15  1  0  0  0
 14 22  1  0  0  0
 15 16  2  0  0  0
 15 23  1  0  0  0
 16 24  1  0  0  0
 17 25  1  0  0  0
 17 26  1  0  0  0
M  END
>  <i_m_Spin_multiplicity> (1)
1

>  <s_j_Task> (1)
Single Point

>  <s_j_QM_Method> (1)
DFT(b3lyp-d3)

>  <s_j_QM_Basis> (1)
cc-pvtz(-f)

>  <i_j_Number_of_canonical_orbitals> (1)
458

>  <i_j_Geometry_convergence_category> (1)
3

>  <r_j_Gas_Phase_Energy> (1)
-744.395948675173

>  <r_j_Final_Energy> (1)
-744.395948675173

>  <r_j_HOMO> (1)
-0.215570108572406

>  <r_j_LUMO> (1)
-0.0940060340873273

>  <r_j_Polarizability> (1)
179.195292527963

>  <r_j_QM_Dipole_(debye)> (1)
2.32525962947476

>  <r_j_QM_Dipole_X_(debye)> (1)
2.05557331246773

>  <r_j_QM_Dipole_Y_(debye)> (1)
-1.08694493515134

>  <r_j_QM_Dipole_Z_(debye)> (1)
-0.00118721706224983

>  <r_j_Lowest_Frequency_(cm-1)> (1)
66.3699340707731

>  <r_j_Highest_Frequency_(cm-1)> (1)
3656.1096306386

>  <r_j_2nd_Lowest_Frequency_(cm-1)> (1)
95.6295672953186

>  <i_j_Num_Negative_Frequencies> (1)
0

>  <r_j_Zero_Point_Energy_(kcal/mol)> (1)
123.008279773789

>  <r_j_Entropy_(cal/mol/K)_298.15K_1.00E+00atm> (1)
107.038423138192

>  <r_j_Enthalpy_(kcal/mol)_298.15K_1.00E+00atm> (1)
8.21184143682581

>  <r_j_Free_Energy_(kcal/mol)_298.15K_1.00E+00atm> (1)
-23.7016644218261

>  <r_j_Internal_Energy_(kcal/mol)_298.15K_1.00E+00atm> (1)
7.61935584799854

>  <r_j_Heat_Capacity_(cal/mol/K)_298.15K_1.00E+00atm> (1)
50.5333448308366

>  <r_j_ln(Q)_298.15K_1.00E+00atm> (1)
40.0037821489289

>  <r_j_Total_Internal_Energy_(au)_298.15K_1.00E+00atm> (1)
-744.187780285903

>  <r_j_Total_Enthalpy_(au)_298.15K_1.00E+00atm> (1)
-744.18683610001

>  <r_j_Total_Free_Energy_(au)_298.15K_1.00E+00atm> (1)
-744.237693509156

>  <r_lp_tautomer_probability> (1)
1

>  <r_epik_Ionization_Penalty> (1)
  0.0000

>  <r_epik_Ionization_Penalty_Charging> (1)
  0.0000

>  <r_epik_Ionization_Penalty_Neutral> (1)
  0.0000

>  <r_epik_State_Penalty> (1)
  0.0000

>  <r_epik_Charging_Adjusted_Penalty> (1)
0

>  <i_epik_Tot_Q> (1)
0

>  <i_epik_Tot_abs_Q> (1)
0

>  <s_lp_Force_Field> (1)
S-OPLS

>  <r_lp_Energy> (1)
23.547499

>  <b_lp_Chiralities_Consistent> (1)
1

$$$$
