67334_4,4-dimethyl-2-neopentyl-1-pentene
                    3D
 Schrodinger Suite 2021-3.
 36 35  0  0  1  0            999 V2000
   -0.1839    2.3079    1.3549 C   0  0  0  0  0  0
   -0.5580    1.5763    0.0547 C   0  0  0  0  0  0
   -2.0918    1.4670   -0.0396 C   0  0  0  0  0  0
   -0.0369    2.3832   -1.1477 C   0  0  0  0  0  0
    0.0180    0.1235    0.0540 C   0  0  0  0  0  0
    1.5318    0.0003    0.0524 C   0  0  0  0  0  0
    2.2242    0.0006    1.1996 C   0  0  0  0  0  0
    2.2388   -0.1233   -1.2862 C   0  0  0  0  0  0
    2.5087   -1.5764   -1.7948 C   0  0  0  0  0  0
    3.4833   -2.3078   -0.8562 C   0  0  0  0  0  0
    3.1425   -1.4676   -3.1948 C   0  0  0  0  0  0
    1.2023   -2.3836   -1.8961 C   0  0  0  0  0  0
   -0.6155    3.3151    1.3672 H   0  0  0  0  0  0
    0.9005    2.4018    1.4595 H   0  0  0  0  0  0
   -0.5618    1.7708    2.2326 H   0  0  0  0  0  0
   -2.5003    0.8921    0.7994 H   0  0  0  0  0  0
   -2.3979    0.9704   -0.9677 H   0  0  0  0  0  0
   -2.5560    2.4595   -0.0224 H   0  0  0  0  0  0
   -0.4948    3.3786   -1.1689 H   0  0  0  0  0  0
   -0.2767    1.8868   -2.0951 H   0  0  0  0  0  0
    1.0480    2.5180   -1.0987 H   0  0  0  0  0  0
   -0.3874   -0.3906    0.9345 H   0  0  0  0  0  0
   -0.3909   -0.3922   -0.8221 H   0  0  0  0  0  0
    1.7293    0.0532    2.1652 H   0  0  0  0  0  0
    3.3092   -0.0521    1.2116 H   0  0  0  0  0  0
    1.6542    0.3918   -2.0567 H   0  0  0  0  0  0
    3.2066    0.3911   -1.2346 H   0  0  0  0  0  0
    3.6952   -3.3153   -1.2314 H   0  0  0  0  0  0
    3.0691   -2.4008    0.1515 H   0  0  0  0  0  0
    4.4361   -1.7711   -0.7806 H   0  0  0  0  0  0
    4.0750   -0.8925   -3.1637 H   0  0  0  0  0  0
    2.4651   -0.9715   -3.8995 H   0  0  0  0  0  0
    3.3751   -2.4603   -3.5965 H   0  0  0  0  0  0
    1.3980   -3.3792   -2.3099 H   0  0  0  0  0  0
    0.4770   -1.8880   -2.5518 H   0  0  0  0  0  0
    0.7382   -2.5176   -0.9142 H   0  0  0  0  0  0
  1  2  1  0  0  0
  1 13  1  0  0  0
  1 14  1  0  0  0
  1 15  1  0  0  0
  2  3  1  0  0  0
  2  4  1  0  0  0
  2  5  1  0  0  0
  3 16  1  0  0  0
  3 17  1  0  0  0
  3 18  1  0  0  0
  4 19  1  0  0  0
  4 20  1  0  0  0
  4 21  1  0  0  0
  5  6  1  0  0  0
  5 22  1  0  0  0
  5 23  1  0  0  0
  6  7  2  0  0  0
  6  8  1  0  0  0
  7 24  1  0  0  0
  7 25  1  0  0  0
  8  9  1  0  0  0
  8 26  1  0  0  0
  8 27  1  0  0  0
  9 10  1  0  0  0
  9 11  1  0  0  0
  9 12  1  0  0  0
 10 28  1  0  0  0
 10 29  1  0  0  0
 10 30  1  0  0  0
 11 31  1  0  0  0
 11 32  1  0  0  0
 11 33  1  0  0  0
 12 34  1  0  0  0
 12 35  1  0  0  0
 12 36  1  0  0  0
M  END
>  <i_m_Spin_multiplicity> (1)
1

>  <s_j_Task> (1)
Single Point

>  <s_j_QM_Method> (1)
DFT(b3lyp-d3)

>  <s_j_QM_Basis> (1)
cc-pvtz(-f)

>  <i_j_Number_of_canonical_orbitals> (1)
486

>  <i_j_Geometry_convergence_category> (1)
3

>  <r_j_Gas_Phase_Energy> (1)
-471.927802564391

>  <r_j_Final_Energy> (1)
-471.927802564391

>  <r_j_HOMO> (1)
-0.244137193440984

>  <r_j_LUMO> (1)
0.00103109639329922

>  <r_j_Polarizability> (1)
144.365540406146

>  <r_j_QM_Dipole_(debye)> (1)
0.334771732833482

>  <r_j_QM_Dipole_X_(debye)> (1)
-0.173766560557088

>  <r_j_QM_Dipole_Y_(debye)> (1)
5.60453994668373e-05

>  <r_j_QM_Dipole_Z_(debye)> (1)
-0.286142084278782

>  <r_j_Lowest_Frequency_(cm-1)> (1)
71.6042198495329

>  <r_j_Highest_Frequency_(cm-1)> (1)
3168.54091500105

>  <r_j_2nd_Lowest_Frequency_(cm-1)> (1)
74.8549424650426

>  <i_j_Num_Negative_Frequencies> (1)
0

>  <r_j_Zero_Point_Energy_(kcal/mol)> (1)
209.939156025226

>  <r_j_Entropy_(cal/mol/K)_298.15K_1.00E+00atm> (1)
112.426776303314

>  <r_j_Enthalpy_(kcal/mol)_298.15K_1.00E+00atm> (1)
9.46464636210729

>  <r_j_Free_Energy_(kcal/mol)_298.15K_1.00E+00atm> (1)
-24.0553969927257

>  <r_j_Internal_Energy_(kcal/mol)_298.15K_1.00E+00atm> (1)
8.87216077328002

>  <r_j_Heat_Capacity_(cal/mol/K)_298.15K_1.00E+00atm> (1)
58.0605412777512

>  <r_j_ln(Q)_298.15K_1.00E+00atm> (1)
40.600813667619

>  <r_j_Total_Internal_Energy_(au)_298.15K_1.00E+00atm> (1)
-471.579104533112

>  <r_j_Total_Enthalpy_(au)_298.15K_1.00E+00atm> (1)
-471.578160347219

>  <r_j_Total_Free_Energy_(au)_298.15K_1.00E+00atm> (1)
-471.631577936845

>  <r_lp_tautomer_probability> (1)
1

>  <r_epik_Ionization_Penalty> (1)
  0.0000

>  <r_epik_Ionization_Penalty_Charging> (1)
  0.0000

>  <r_epik_Ionization_Penalty_Neutral> (1)
  0.0000

>  <r_epik_State_Penalty> (1)
  0.0000

>  <r_epik_Charging_Adjusted_Penalty> (1)
0

>  <i_epik_Tot_Q> (1)
0

>  <i_epik_Tot_abs_Q> (1)
0

>  <s_lp_Force_Field> (1)
S-OPLS

>  <r_lp_Energy> (1)
6.07052

>  <b_lp_Chiralities_Consistent> (1)
1

$$$$
