6734_Acenaphthene
                    3D
 Schrodinger Suite 2021-3.
 22 24  0  0  1  0            999 V2000
    4.3782    1.0162   -0.4292 C   0  0  0  0  0  0
    3.7908    1.9399    0.6958 C   0  0  0  0  0  0
    2.5895    1.1818    1.2340 C   0  0  0  0  0  0
    1.6754    1.4724    2.2213 C   0  0  0  0  0  0
    0.6411    0.5340    2.4944 C   0  0  0  0  0  0
    0.5210   -0.6584    1.8047 C   0  0  0  0  0  0
    1.4504   -0.9856    0.7801 C   0  0  0  0  0  0
    2.4667   -0.0350    0.5305 C   0  0  0  0  0  0
    3.4685   -0.2001   -0.4491 C   0  0  0  0  0  0
    3.4685   -1.3462   -1.2115 C   0  0  0  0  0  0
    2.4572   -2.3209   -0.9824 C   0  0  0  0  0  0
    1.4755   -2.1586   -0.0223 C   0  0  0  0  0  0
    5.4152    0.7342   -0.2156 H   0  0  0  0  0  0
    4.3883    1.5230   -1.4007 H   0  0  0  0  0  0
    4.5278    2.1306    1.4841 H   0  0  0  0  0  0
    3.4997    2.9194    0.2998 H   0  0  0  0  0  0
    1.7280    2.3962    2.7909 H   0  0  0  0  0  0
   -0.0788    0.7672    3.2745 H   0  0  0  0  0  0
   -0.2830   -1.3499    2.0423 H   0  0  0  0  0  0
    4.2190   -1.5195   -1.9778 H   0  0  0  0  0  0
    2.4606   -3.2243   -1.5865 H   0  0  0  0  0  0
    0.7196   -2.9258    0.1232 H   0  0  0  0  0  0
  1  9  1  0  0  0
  1  2  1  0  0  0
  1 13  1  0  0  0
  1 14  1  0  0  0
  2  3  1  0  0  0
  2 15  1  0  0  0
  2 16  1  0  0  0
  3  8  1  0  0  0
  3  4  2  0  0  0
  4  5  1  0  0  0
  4 17  1  0  0  0
  5  6  2  0  0  0
  5 18  1  0  0  0
  6  7  1  0  0  0
  6 19  1  0  0  0
  7 12  1  0  0  0
  7  8  2  0  0  0
  8  9  1  0  0  0
  9 10  2  0  0  0
 10 11  1  0  0  0
 10 20  1  0  0  0
 11 12  2  0  0  0
 11 21  1  0  0  0
 12 22  1  0  0  0
M  END
>  <i_m_Spin_multiplicity> (1)
1

>  <s_j_Task> (1)
Single Point

>  <s_j_QM_Method> (1)
DFT(b3lyp-d3)

>  <s_j_QM_Basis> (1)
cc-pvtz(-f)

>  <i_j_Number_of_canonical_orbitals> (1)
357

>  <i_j_Geometry_convergence_category> (1)
0

>  <r_j_Gas_Phase_Energy> (1)
-463.467563963906

>  <r_j_Final_Energy> (1)
-463.467563963906

>  <r_j_HOMO> (1)
-0.215073790820763

>  <r_j_LUMO> (1)
-0.0453208379470273

>  <r_j_Polarizability> (1)
132.398353861478

>  <r_j_QM_Dipole_(debye)> (1)
0.91176573066523

>  <r_j_QM_Dipole_X_(debye)> (1)
0.655798345481102

>  <r_j_QM_Dipole_Y_(debye)> (1)
0.612753811193556

>  <r_j_QM_Dipole_Z_(debye)> (1)
-0.160555425157552

>  <r_j_Lowest_Frequency_(cm-1)> (1)
139.837245086131

>  <r_j_Highest_Frequency_(cm-1)> (1)
3139.91338103332

>  <r_j_2nd_Lowest_Frequency_(cm-1)> (1)
181.955926425039

>  <i_j_Num_Negative_Frequencies> (1)
0

>  <r_j_Zero_Point_Energy_(kcal/mol)> (1)
113.86630804909

>  <r_j_Entropy_(cal/mol/K)_298.15K_1.00E+00atm> (1)
88.2113259679776

>  <r_j_Enthalpy_(kcal/mol)_298.15K_1.00E+00atm> (1)
5.67190139827237

>  <r_j_Free_Energy_(kcal/mol)_298.15K_1.00E+00atm> (1)
-20.6283054390801

>  <r_j_Internal_Energy_(kcal/mol)_298.15K_1.00E+00atm> (1)
5.0794158094451

>  <r_j_Heat_Capacity_(cal/mol/K)_298.15K_1.00E+00atm> (1)
34.9059359325049

>  <r_j_ln(Q)_298.15K_1.00E+00atm> (1)
34.8165522133802

>  <r_j_Total_Internal_Energy_(au)_298.15K_1.00E+00atm> (1)
-463.278011886137

>  <r_j_Total_Enthalpy_(au)_298.15K_1.00E+00atm> (1)
-463.277067700244

>  <r_j_Total_Free_Energy_(au)_298.15K_1.00E+00atm> (1)
-463.318979747942

>  <r_lp_tautomer_probability> (1)
1

>  <r_epik_Ionization_Penalty> (1)
  0.0000

>  <r_epik_Ionization_Penalty_Charging> (1)
  0.0000

>  <r_epik_Ionization_Penalty_Neutral> (1)
  0.0000

>  <r_epik_State_Penalty> (1)
  0.0000

>  <r_epik_Charging_Adjusted_Penalty> (1)
0

>  <i_epik_Tot_Q> (1)
0

>  <i_epik_Tot_abs_Q> (1)
0

>  <s_lp_Force_Field> (1)
S-OPLS

>  <r_lp_Energy> (1)
21.0426

>  <b_lp_Chiralities_Consistent> (1)
1

$$$$
