67450_Indeno[1,2,3-cd]fluoranthene
                    3D
 Schrodinger Suite 2021-3.
 34 39  0  0  1  0            999 V2000
    2.9229   -2.2544    3.7981 C   0  0  0  0  0  0
    1.8854   -1.3293    3.6107 C   0  0  0  0  0  0
    1.4401   -1.0623    2.3236 C   0  0  0  0  0  0
    0.3827   -0.1531    1.8174 C   0  0  0  0  0  0
   -0.5537    0.7528    2.3039 C   0  0  0  0  0  0
   -1.4346    1.4598    1.4124 C   0  0  0  0  0  0
   -1.3751    1.2576    0.0377 C   0  0  0  0  0  0
   -2.0410    1.7311   -1.2003 C   0  0  0  0  0  0
   -3.0668    2.6439   -1.4025 C   0  0  0  0  0  0
   -3.5054    2.9025   -2.7093 C   0  0  0  0  0  0
   -2.9229    2.2544   -3.7981 C   0  0  0  0  0  0
   -1.8854    1.3294   -3.6107 C   0  0  0  0  0  0
   -1.4400    1.0623   -2.3237 C   0  0  0  0  0  0
   -0.3826    0.1532   -1.8174 C   0  0  0  0  0  0
   -0.4170    0.3347   -0.4222 C   0  0  0  0  0  0
    0.4171   -0.3347    0.4221 C   0  0  0  0  0  0
    1.3752   -1.2576   -0.0377 C   0  0  0  0  0  0
    2.0411   -1.7311    1.2003 C   0  0  0  0  0  0
    3.0667   -2.6439    1.4025 C   0  0  0  0  0  0
    3.5054   -2.9026    2.7094 C   0  0  0  0  0  0
    1.4346   -1.4598   -1.4123 C   0  0  0  0  0  0
    0.5538   -0.7528   -2.3038 C   0  0  0  0  0  0
    3.2757   -2.4674    4.8029 H   0  0  0  0  0  0
    1.4366   -0.8284    4.4639 H   0  0  0  0  0  0
   -0.6435    0.9493    3.3684 H   0  0  0  0  0  0
   -2.1470    2.1560    1.8466 H   0  0  0  0  0  0
   -3.5254    3.1528   -0.5593 H   0  0  0  0  0  0
   -4.3078    3.6157   -2.8739 H   0  0  0  0  0  0
   -3.2759    2.4674   -4.8028 H   0  0  0  0  0  0
   -1.4367    0.8285   -4.4640 H   0  0  0  0  0  0
    3.5254   -3.1529    0.5594 H   0  0  0  0  0  0
    4.3077   -3.6158    2.8740 H   0  0  0  0  0  0
    2.1470   -2.1560   -1.8466 H   0  0  0  0  0  0
    0.6437   -0.9493   -3.3683 H   0  0  0  0  0  0
  1 20  1  0  0  0
  1  2  2  0  0  0
  1 23  1  0  0  0
  2  3  1  0  0  0
  2 24  1  0  0  0
  3 18  1  0  0  0
  3  4  2  0  0  0
  4 16  1  0  0  0
  4  5  1  0  0  0
  5  6  2  0  0  0
  5 25  1  0  0  0
  6  7  1  0  0  0
  6 26  1  0  0  0
  7 15  1  0  0  0
  7  8  2  0  0  0
  8 13  1  0  0  0
  8  9  1  0  0  0
  9 10  2  0  0  0
  9 27  1  0  0  0
 10 11  1  0  0  0
 10 28  1  0  0  0
 11 12  2  0  0  0
 11 29  1  0  0  0
 12 13  1  0  0  0
 12 30  1  0  0  0
 13 14  2  0  0  0
 14 22  1  0  0  0
 14 15  1  0  0  0
 15 16  2  0  0  0
 16 17  1  0  0  0
 17 18  2  0  0  0
 17 21  1  0  0  0
 18 19  1  0  0  0
 19 20  2  0  0  0
 19 31  1  0  0  0
 20 32  1  0  0  0
 21 22  2  0  0  0
 21 33  1  0  0  0
 22 34  1  0  0  0
M  END
>  <i_m_Spin_multiplicity> (1)
1

>  <s_j_Task> (1)
Single Point

>  <s_j_QM_Method> (1)
DFT(b3lyp-d3)

>  <s_j_QM_Basis> (1)
cc-pvtz(-f)

>  <i_j_Number_of_canonical_orbitals> (1)
591

>  <i_j_Geometry_convergence_category> (1)
3

>  <r_j_Gas_Phase_Energy> (1)
-845.856347160293

>  <r_j_Final_Energy> (1)
-845.856347160293

>  <r_j_HOMO> (1)
-0.210601087236902

>  <r_j_LUMO> (1)
-0.0947984495062647

>  <r_j_Polarizability> (1)
280.037120268159

>  <r_j_QM_Dipole_(debye)> (1)
0.00230369739867688

>  <r_j_QM_Dipole_X_(debye)> (1)
0.000994341679219909

>  <r_j_QM_Dipole_Y_(debye)> (1)
-0.000838242724704691

>  <r_j_QM_Dipole_Z_(debye)> (1)
0.00190148769759796

>  <r_j_Lowest_Frequency_(cm-1)> (1)
58.3001495081661

>  <r_j_Highest_Frequency_(cm-1)> (1)
3148.23367284273

>  <r_j_2nd_Lowest_Frequency_(cm-1)> (1)
131.575088299992

>  <i_j_Num_Negative_Frequencies> (1)
0

>  <r_j_Zero_Point_Energy_(kcal/mol)> (1)
165.690795920626

>  <r_j_Entropy_(cal/mol/K)_298.15K_1.00E+00atm> (1)
113.756037635245

>  <r_j_Enthalpy_(kcal/mol)_298.15K_1.00E+00atm> (1)
9.14264215501889

>  <r_j_Free_Energy_(kcal/mol)_298.15K_1.00E+00atm> (1)
-24.7737204659293

>  <r_j_Internal_Energy_(kcal/mol)_298.15K_1.00E+00atm> (1)
8.55015656619162

>  <r_j_Heat_Capacity_(cal/mol/K)_298.15K_1.00E+00atm> (1)
60.3975314424351

>  <r_j_ln(Q)_298.15K_1.00E+00atm> (1)
41.8132034484834

>  <r_j_Total_Internal_Energy_(au)_298.15K_1.00E+00atm> (1)
-845.578676526117

>  <r_j_Total_Enthalpy_(au)_298.15K_1.00E+00atm> (1)
-845.577732340225

>  <r_j_Total_Free_Energy_(au)_298.15K_1.00E+00atm> (1)
-845.631781504807

>  <r_lp_tautomer_probability> (1)
1

>  <r_epik_Ionization_Penalty> (1)
  0.0000

>  <r_epik_Ionization_Penalty_Charging> (1)
  0.0000

>  <r_epik_Ionization_Penalty_Neutral> (1)
  0.0000

>  <r_epik_State_Penalty> (1)
  0.0000

>  <r_epik_Charging_Adjusted_Penalty> (1)
0

>  <i_epik_Tot_Q> (1)
0

>  <i_epik_Tot_abs_Q> (1)
0

>  <s_lp_Force_Field> (1)
S-OPLS

>  <r_lp_Energy> (1)
52.8257

>  <b_lp_Chiralities_Consistent> (1)
1

$$$$
