674_Dimethylamine
                    3D
 Schrodinger Suite 2021-3.
 11 10  0  0  1  0            999 V2000
   -0.0699    0.0320    0.0000 C   0  0  0  0  0  0
    1.4389   -0.0299    0.0000 N   0  3  1  0  0  0
    2.0001   -1.4318    0.0000 C   0  0  0  0  0  0
   -0.3802    1.0773    0.0001 H   0  0  0  0  0  0
   -0.4339   -0.4734    0.8945 H   0  0  0  0  0  0
   -0.4339   -0.4732   -0.8947 H   0  0  0  0  0  0
    1.7966    0.4760   -0.8177 H   0  0  0  0  0  0
    3.0891   -1.3758   -0.0001 H   0  0  0  0  0  0
    1.6449   -1.9434   -0.8945 H   0  0  0  0  0  0
    1.6452   -1.9433    0.8947 H   0  0  0  0  0  0
    1.7965    0.4760    0.8177 H   0  0  0  0  0  0
  1  2  1  0  0  0
  1  4  1  0  0  0
  1  5  1  0  0  0
  1  6  1  0  0  0
  2  3  1  0  0  0
  2  7  1  0  0  0
  2 11  1  0  0  0
  3  8  1  0  0  0
  3  9  1  0  0  0
  3 10  1  0  0  0
M  END
>  <i_m_Spin_multiplicity> (1)
1

>  <s_j_Task> (1)
Single Point

>  <s_j_QM_Method> (1)
DFT(b3lyp-d3)

>  <s_j_QM_Basis> (1)
cc-pvtz(-f)

>  <i_j_Number_of_canonical_orbitals> (1)
141

>  <i_j_Geometry_convergence_category> (1)
0

>  <r_j_Gas_Phase_Energy> (1)
-135.589865288451

>  <r_j_Final_Energy> (1)
-135.589865288451

>  <r_j_HOMO> (1)
-0.607387077002692

>  <r_j_LUMO> (1)
-0.191380000603602

>  <r_j_Polarizability> (1)
30.804612609549

>  <r_j_QM_Dipole_(debye)> (1)
1.42759675425381

>  <r_j_QM_Dipole_X_(debye)> (1)
0.824168228594203

>  <r_j_QM_Dipole_Y_(debye)> (1)
1.16566685770981

>  <r_j_QM_Dipole_Z_(debye)> (1)
2.38507179464297e-05

>  <r_j_Lowest_Frequency_(cm-1)> (1)
277.243109930597

>  <r_j_Highest_Frequency_(cm-1)> (1)
3417.64426231315

>  <r_j_2nd_Lowest_Frequency_(cm-1)> (1)
322.017439223699

>  <i_j_Num_Negative_Frequencies> (1)
0

>  <r_j_Zero_Point_Energy_(kcal/mol)> (1)
67.6137236642162

>  <r_j_Entropy_(cal/mol/K)_298.15K_1.00E+00atm> (1)
63.2283391350237

>  <r_j_Enthalpy_(kcal/mol)_298.15K_1.00E+00atm> (1)
3.28121706418332

>  <r_j_Free_Energy_(kcal/mol)_298.15K_1.00E+00atm> (1)
-15.570312248924

>  <r_j_Internal_Energy_(kcal/mol)_298.15K_1.00E+00atm> (1)
2.68873147535605

>  <r_j_Heat_Capacity_(cal/mol/K)_298.15K_1.00E+00atm> (1)
13.9633477415308

>  <r_j_ln(Q)_298.15K_1.00E+00atm> (1)
26.279647205838

>  <r_j_Total_Internal_Energy_(au)_298.15K_1.00E+00atm> (1)
-135.477831194145

>  <r_j_Total_Enthalpy_(au)_298.15K_1.00E+00atm> (1)
-135.476887008253

>  <r_j_Total_Free_Energy_(au)_298.15K_1.00E+00atm> (1)
-135.506928832663

>  <r_lp_tautomer_probability> (1)
1

>  <r_epik_Ionization_Penalty> (1)
  0.0003

>  <r_epik_Ionization_Penalty_Charging> (1)
  0.0003

>  <r_epik_Ionization_Penalty_Neutral> (1)
  0.0000

>  <r_epik_State_Penalty> (1)
  0.0000

>  <r_epik_Charging_Adjusted_Penalty> (1)
0.000270756

>  <i_epik_Tot_Q> (1)
1

>  <i_epik_Tot_abs_Q> (1)
1

>  <s_lp_Force_Field> (1)
S-OPLS

>  <r_lp_Energy> (1)
9.02101

>  <b_lp_Chiralities_Consistent> (1)
1

$$$$
