6780_Anthraquinone
                    3D
 Schrodinger Suite 2021-3.
 24 26  0  0  1  0            999 V2000
   -0.1664    0.0303    0.0041 C   0  0  0  0  0  0
    0.8576   -0.7792    0.5074 C   0  0  0  0  0  0
    0.7259   -2.1645    0.4888 C   0  0  0  0  0  0
   -0.4309   -2.7531   -0.0330 C   0  0  0  0  0  0
   -1.4618   -1.9382   -0.5394 C   0  0  0  0  0  0
   -1.3207   -0.5466   -0.5169 C   0  0  0  0  0  0
   -2.7102   -2.5280   -1.1033 C   0  0  0  0  0  0
   -3.6084   -1.8183   -1.5437 O   0  0  0  0  0  0
   -2.8230   -4.0151   -1.1104 C   0  0  0  0  0  0
   -3.9796   -4.6037   -1.6325 C   0  0  0  0  0  0
   -4.1112   -5.9890   -1.6514 C   0  0  0  0  0  0
   -3.0873   -6.7985   -1.1479 C   0  0  0  0  0  0
   -1.9331   -6.2215   -0.6266 C   0  0  0  0  0  0
   -1.7921   -4.8299   -0.6040 C   0  0  0  0  0  0
   -0.5438   -4.2401   -0.0398 C   0  0  0  0  0  0
    0.3543   -4.9498    0.4009 O   0  0  0  0  0  0
   -0.0614    1.1111    0.0197 H   0  0  0  0  0  0
    1.7574   -0.3268    0.9135 H   0  0  0  0  0  0
    1.5051   -2.8140    0.8728 H   0  0  0  0  0  0
   -2.1289    0.0588   -0.9130 H   0  0  0  0  0  0
   -4.7588   -3.9541   -2.0166 H   0  0  0  0  0  0
   -5.0108   -6.4414   -2.0579 H   0  0  0  0  0  0
   -3.1922   -7.8792   -1.1635 H   0  0  0  0  0  0
   -1.1250   -6.8269   -0.2303 H   0  0  0  0  0  0
  1  6  1  0  0  0
  1  2  2  0  0  0
  1 17  1  0  0  0
  2  3  1  0  0  0
  2 18  1  0  0  0
  3  4  2  0  0  0
  3 19  1  0  0  0
  4 15  1  0  0  0
  4  5  1  0  0  0
  5  6  2  0  0  0
  5  7  1  0  0  0
  6 20  1  0  0  0
  7  8  2  0  0  0
  7  9  1  0  0  0
  9 14  1  0  0  0
  9 10  2  0  0  0
 10 11  1  0  0  0
 10 21  1  0  0  0
 11 12  2  0  0  0
 11 22  1  0  0  0
 12 13  1  0  0  0
 12 23  1  0  0  0
 13 14  2  0  0  0
 13 24  1  0  0  0
 14 15  1  0  0  0
 15 16  2  0  0  0
M  END
>  <i_m_Spin_multiplicity> (1)
1

>  <s_j_Task> (1)
Single Point

>  <s_j_QM_Method> (1)
DFT(b3lyp-d3)

>  <s_j_QM_Basis> (1)
cc-pvtz(-f)

>  <i_j_Number_of_canonical_orbitals> (1)
428

>  <i_j_Geometry_convergence_category> (1)
3

>  <r_j_Gas_Phase_Energy> (1)
-689.00848515554

>  <r_j_Final_Energy> (1)
-689.00848515554

>  <r_j_HOMO> (1)
-0.282376122711961

>  <r_j_LUMO> (1)
-0.129656890409083

>  <r_j_Polarizability> (1)
163.204903075603

>  <r_j_QM_Dipole_(debye)> (1)
0.00124168370471253

>  <r_j_QM_Dipole_X_(debye)> (1)
-7.44572206397592e-06

>  <r_j_QM_Dipole_Y_(debye)> (1)
0.000468057607024176

>  <r_j_QM_Dipole_Z_(debye)> (1)
-0.00115006306795687

>  <r_j_Lowest_Frequency_(cm-1)> (1)
66.2575575798162

>  <r_j_Highest_Frequency_(cm-1)> (1)
3164.21766156781

>  <r_j_2nd_Lowest_Frequency_(cm-1)> (1)
131.646712640317

>  <i_j_Num_Negative_Frequencies> (1)
0

>  <r_j_Zero_Point_Energy_(kcal/mol)> (1)
112.69015269258

>  <r_j_Entropy_(cal/mol/K)_298.15K_1.00E+00atm> (1)
101.47262304529

>  <r_j_Enthalpy_(kcal/mol)_298.15K_1.00E+00atm> (1)
7.36130090378387

>  <r_j_Free_Energy_(kcal/mol)_298.15K_1.00E+00atm> (1)
-22.8927616571693

>  <r_j_Internal_Energy_(kcal/mol)_298.15K_1.00E+00atm> (1)
6.76881531495659

>  <r_j_Heat_Capacity_(cal/mol/K)_298.15K_1.00E+00atm> (1)
44.8696213356934

>  <r_j_ln(Q)_298.15K_1.00E+00atm> (1)
38.6385122083419

>  <r_j_Total_Internal_Energy_(au)_298.15K_1.00E+00atm> (1)
-688.818115171152

>  <r_j_Total_Enthalpy_(au)_298.15K_1.00E+00atm> (1)
-688.81717098526

>  <r_j_Total_Free_Energy_(au)_298.15K_1.00E+00atm> (1)
-688.865383903163

>  <r_lp_tautomer_probability> (1)
1

>  <r_epik_Ionization_Penalty> (1)
  0.0000

>  <r_epik_Ionization_Penalty_Charging> (1)
  0.0000

>  <r_epik_Ionization_Penalty_Neutral> (1)
  0.0000

>  <r_epik_State_Penalty> (1)
  0.0000

>  <r_epik_Charging_Adjusted_Penalty> (1)
0

>  <i_epik_Tot_Q> (1)
0

>  <i_epik_Tot_abs_Q> (1)
0

>  <s_lp_Force_Field> (1)
S-OPLS

>  <r_lp_Energy> (1)
21.5566

>  <b_lp_Chiralities_Consistent> (1)
1

$$$$
