68126_1,2-dimethoxy-4-methyl benzene
                    3D
 Schrodinger Suite 2021-3.
 23 23  0  0  1  0            999 V2000
   -2.9261   -2.5813    0.0001 C   0  0  0  0  0  0
   -2.1752   -1.2687    0.0000 C   0  0  0  0  0  0
   -0.7710   -1.2443    0.0001 C   0  0  0  0  0  0
   -0.0634   -0.0433    0.0000 C   0  0  0  0  0  0
   -0.7693    1.1833    0.0000 C   0  0  0  0  0  0
   -2.1624    1.1606   -0.0002 C   0  0  0  0  0  0
   -2.8565   -0.0546   -0.0002 C   0  0  0  0  0  0
    0.0012    2.3105    0.0001 O   0  0  0  0  0  0
   -0.6621    3.5622    0.0001 C   0  0  0  0  0  0
    1.2970    0.0625    0.0000 O   0  0  0  0  0  0
    2.0570   -1.1332   -0.0002 C   0  0  0  0  0  0
   -2.2442   -3.4368    0.0010 H   0  0  0  0  0  0
   -3.5710   -2.6726   -0.8817 H   0  0  0  0  0  0
   -3.5721   -2.6717    0.8812 H   0  0  0  0  0  0
   -0.2320   -2.1848    0.0001 H   0  0  0  0  0  0
   -2.7206    2.0891   -0.0003 H   0  0  0  0  0  0
   -3.9434   -0.0438   -0.0003 H   0  0  0  0  0  0
    0.1235    4.3197    0.0003 H   0  0  0  0  0  0
   -1.2884    3.6929    0.8935 H   0  0  0  0  0  0
   -1.2882    3.6931   -0.8934 H   0  0  0  0  0  0
    3.1036   -0.8239   -0.0002 H   0  0  0  0  0  0
    1.8612   -1.7417   -0.8938 H   0  0  0  0  0  0
    1.8613   -1.7420    0.8932 H   0  0  0  0  0  0
  1  2  1  0  0  0
  1 12  1  0  0  0
  1 13  1  0  0  0
  1 14  1  0  0  0
  2  7  1  0  0  0
  2  3  2  0  0  0
  3  4  1  0  0  0
  3 15  1  0  0  0
  4  5  2  0  0  0
  4 10  1  0  0  0
  5  6  1  0  0  0
  5  8  1  0  0  0
  6  7  2  0  0  0
  6 16  1  0  0  0
  7 17  1  0  0  0
  8  9  1  0  0  0
  9 18  1  0  0  0
  9 19  1  0  0  0
  9 20  1  0  0  0
 10 11  1  0  0  0
 11 21  1  0  0  0
 11 22  1  0  0  0
 11 23  1  0  0  0
M  END
>  <i_m_Spin_multiplicity> (1)
1

>  <s_j_Task> (1)
Single Point

>  <s_j_QM_Method> (1)
DFT(b3lyp-d3)

>  <s_j_QM_Basis> (1)
cc-pvtz(-f)

>  <i_j_Number_of_canonical_orbitals> (1)
355

>  <i_j_Geometry_convergence_category> (1)
0

>  <r_j_Gas_Phase_Energy> (1)
-500.789201489477

>  <r_j_Final_Energy> (1)
-500.789201489477

>  <r_j_HOMO> (1)
-0.200971151530708

>  <r_j_LUMO> (1)
0.00151604168172451

>  <r_j_Polarizability> (1)
115.617757084839

>  <r_j_QM_Dipole_(debye)> (1)
0.400396084290998

>  <r_j_QM_Dipole_X_(debye)> (1)
-0.260448239711115

>  <r_j_QM_Dipole_Y_(debye)> (1)
-0.304111308039497

>  <r_j_QM_Dipole_Z_(debye)> (1)
-0.00022598551287236

>  <r_j_Lowest_Frequency_(cm-1)> (1)
93.1764508682208

>  <r_j_Highest_Frequency_(cm-1)> (1)
3164.71948015608

>  <r_j_2nd_Lowest_Frequency_(cm-1)> (1)
108.789533592254

>  <i_j_Num_Negative_Frequencies> (1)
0

>  <r_j_Zero_Point_Energy_(kcal/mol)> (1)
120.708455842277

>  <r_j_Entropy_(cal/mol/K)_298.15K_1.00E+00atm> (1)
99.716594778102

>  <r_j_Enthalpy_(kcal/mol)_298.15K_1.00E+00atm> (1)
7.30506207254204

>  <r_j_Free_Energy_(kcal/mol)_298.15K_1.00E+00atm> (1)
-22.4254406605491

>  <r_j_Internal_Energy_(kcal/mol)_298.15K_1.00E+00atm> (1)
6.71257648371476

>  <r_j_Heat_Capacity_(cal/mol/K)_298.15K_1.00E+00atm> (1)
40.9137409211393

>  <r_j_ln(Q)_298.15K_1.00E+00atm> (1)
37.8497656034748

>  <r_j_Total_Internal_Energy_(au)_298.15K_1.00E+00atm> (1)
-500.586143147862

>  <r_j_Total_Enthalpy_(au)_298.15K_1.00E+00atm> (1)
-500.58519896197

>  <r_j_Total_Free_Energy_(au)_298.15K_1.00E+00atm> (1)
-500.632577534174

>  <r_lp_tautomer_probability> (1)
1

>  <r_epik_Ionization_Penalty> (1)
  0.0000

>  <r_epik_Ionization_Penalty_Charging> (1)
  0.0000

>  <r_epik_Ionization_Penalty_Neutral> (1)
  0.0000

>  <r_epik_State_Penalty> (1)
  0.0000

>  <r_epik_Charging_Adjusted_Penalty> (1)
0

>  <i_epik_Tot_Q> (1)
0

>  <i_epik_Tot_abs_Q> (1)
0

>  <s_lp_Force_Field> (1)
S-OPLS

>  <r_lp_Energy> (1)
14.1074

>  <b_lp_Chiralities_Consistent> (1)
1

$$$$
