68245_Mineral oil
                    3D
 Schrodinger Suite 2021-3.
 33 35  0  0  1  0            999 V2000
   -0.6293   -0.9566   -0.6718 C   0  0  0  0  0  0
    0.0446    0.1181   -0.0308 C   0  0  0  0  0  0
   -0.7249    1.1144    0.6247 C   0  0  0  0  0  0
   -2.1023    1.0213    0.6267 C   0  0  0  0  0  0
   -2.7695   -0.0472   -0.0095 C   0  0  0  0  0  0
   -2.0100   -1.0453   -0.6654 C   0  0  0  0  0  0
   -2.7233   -2.0338   -1.2487 O   0  0  0  0  0  0
   -4.0993   -0.1402   -0.0082 O   0  0  0  0  0  0
   -2.9499    1.9128    1.2174 O   0  0  0  0  0  0
    1.4787    0.1608   -0.0684 C   0  0  0  0  0  0
    2.0351   -0.8629   -0.7562 O   0  3  1  0  0  0
    3.3686   -1.0529   -0.9379 C   0  0  0  0  0  0
    3.7697   -2.1589   -1.6721 C   0  0  0  0  0  0
    5.1445   -2.3419   -1.8524 C   0  0  0  0  0  0
    6.0883   -1.4396   -1.3103 C   0  0  0  0  0  0
    5.6648   -0.3463   -0.5833 C   0  0  0  0  0  0
    4.2687   -0.1232   -0.3762 C   0  0  0  0  0  0
    3.7343    0.9568    0.3472 C   0  0  0  0  0  0
    2.3687    1.1111    0.5079 C   0  0  0  0  0  0
    1.8338    2.1459    1.2043 O   0  0  0  0  0  0
    6.4864    0.5681   -0.0276 O   0  0  0  0  0  0
    5.6614   -3.3714   -2.5427 O   0  0  0  0  0  0
   -0.0600   -1.7268   -1.1775 H   0  0  0  0  0  0
   -0.2475    1.9459    1.1201 H   0  0  0  0  0  0
   -2.1333   -2.6716   -1.6720 H   0  0  0  0  0  0
   -4.4679    0.6155    0.4802 H   0  0  0  0  0  0
   -2.4666    2.6267    1.6528 H   0  0  0  0  0  0
    3.0356   -2.8422   -2.0824 H   0  0  0  0  0  0
    7.1413   -1.6340   -1.4833 H   0  0  0  0  0  0
    4.4169    1.6794    0.7851 H   0  0  0  0  0  0
    2.5340    2.7175    1.5485 H   0  0  0  0  0  0
    7.4133    0.3553   -0.2065 H   0  0  0  0  0  0
    4.9663   -3.9505   -2.8866 H   0  0  0  0  0  0
  1  6  1  0  0  0
  1  2  2  0  0  0
  1 23  1  0  0  0
  2  3  1  0  0  0
  2 10  1  0  0  0
  3  4  2  0  0  0
  3 24  1  0  0  0
  4  5  1  0  0  0
  4  9  1  0  0  0
  5  6  2  0  0  0
  5  8  1  0  0  0
  6  7  1  0  0  0
  7 25  1  0  0  0
  8 26  1  0  0  0
  9 27  1  0  0  0
 10 19  1  0  0  0
 10 11  2  0  0  0
 11 12  1  0  0  0
 12 17  1  0  0  0
 12 13  2  0  0  0
 13 14  1  0  0  0
 13 28  1  0  0  0
 14 15  2  0  0  0
 14 22  1  0  0  0
 15 16  1  0  0  0
 15 29  1  0  0  0
 16 17  2  0  0  0
 16 21  1  0  0  0
 17 18  1  0  0  0
 18 19  2  0  0  0
 18 30  1  0  0  0
 19 20  1  0  0  0
 20 31  1  0  0  0
 21 32  1  0  0  0
 22 33  1  0  0  0
M  END
>  <i_m_Spin_multiplicity> (1)
1

>  <s_j_Task> (1)
Single Point

>  <s_j_QM_Method> (1)
DFT(b3lyp-d3)

>  <s_j_QM_Basis> (1)
cc-pvtz(-f)

>  <i_j_Number_of_canonical_orbitals> (1)
590

>  <i_j_Geometry_convergence_category> (1)
0

>  <r_j_Gas_Phase_Energy> (1)
-1104.94564291512

>  <r_j_Final_Energy> (1)
-1104.94564291512

>  <r_j_HOMO> (1)
-0.331801822374298

>  <r_j_LUMO> (1)
-0.237035305099341

>  <r_j_Polarizability> (1)
266.748916607327

>  <r_j_QM_Dipole_(debye)> (1)
5.07918562771861

>  <r_j_QM_Dipole_X_(debye)> (1)
4.88137353948791

>  <r_j_QM_Dipole_Y_(debye)> (1)
1.26923703115901

>  <r_j_QM_Dipole_Z_(debye)> (1)
0.599463399671058

>  <r_j_Lowest_Frequency_(cm-1)> (1)
33.3678608764822

>  <r_j_Highest_Frequency_(cm-1)> (1)
3784.31491547436

>  <r_j_2nd_Lowest_Frequency_(cm-1)> (1)
49.9342877748246

>  <i_j_Num_Negative_Frequencies> (1)
0

>  <r_j_Zero_Point_Energy_(kcal/mol)> (1)
151.660096737708

>  <r_j_Entropy_(cal/mol/K)_298.15K_1.00E+00atm> (1)
131.62401357938

>  <r_j_Enthalpy_(kcal/mol)_298.15K_1.00E+00atm> (1)
11.8377541965076

>  <r_j_Free_Energy_(kcal/mol)_298.15K_1.00E+00atm> (1)
-27.4059454521846

>  <r_j_Internal_Energy_(kcal/mol)_298.15K_1.00E+00atm> (1)
11.2452686076803

>  <r_j_Heat_Capacity_(cal/mol/K)_298.15K_1.00E+00atm> (1)
73.7642186286688

>  <r_j_ln(Q)_298.15K_1.00E+00atm> (1)
46.2558853227637

>  <r_j_Total_Internal_Energy_(au)_298.15K_1.00E+00atm> (1)
-1104.68603668903

>  <r_j_Total_Enthalpy_(au)_298.15K_1.00E+00atm> (1)
-1104.68509250314

>  <r_j_Total_Free_Energy_(au)_298.15K_1.00E+00atm> (1)
-1104.74763131972

>  <r_lp_tautomer_probability> (1)
0.999999999957461

>  <r_epik_Ionization_Penalty> (1)
  0.1354

>  <r_epik_Ionization_Penalty_Charging> (1)
  0.0000

>  <r_epik_Ionization_Penalty_Neutral> (1)
  0.1354

>  <r_epik_State_Penalty> (1)
  0.1096

>  <r_epik_Charging_Adjusted_Penalty> (1)
0.109602871017805

>  <i_epik_Tot_Q> (1)
1

>  <i_epik_Tot_abs_Q> (1)
1

>  <s_lp_Force_Field> (1)
S-OPLS

>  <r_lp_Energy> (1)
23.011116

>  <b_lp_Chiralities_Consistent> (1)
1

$$$$
