68344_Myristoleic acid
                    3D
 Schrodinger Suite 2021-3.
 41 40  0  0  1  0            999 V2000
   -3.0400    6.1108   -0.1750 C   0  0  0  0  0  0
   -3.1427    5.3925   -1.5257 C   0  0  0  0  0  0
   -2.6293    3.9446   -1.5056 C   0  0  0  0  0  0
   -1.1208    3.8078   -1.2187 C   0  0  0  0  0  0
   -0.6429    2.3864   -1.3381 C   0  0  0  0  0  0
   -0.1173    1.6575   -0.3505 C   0  0  0  0  0  0
    0.3564    0.2362   -0.4692 C   0  0  0  0  0  0
    1.8685    0.0756   -0.2198 C   0  0  0  0  0  0
    2.3344   -1.3830   -0.2906 C   0  0  0  0  0  0
    3.8379   -1.5687   -0.0562 C   0  0  0  0  0  0
    4.2922   -3.0329   -0.1194 C   0  0  0  0  0  0
    5.7922   -3.2285    0.1284 C   0  0  0  0  0  0
    6.2570   -4.6840    0.0912 C   0  0  0  0  0  0
    7.7427   -4.8934    0.5876 C   0  0  0  0  0  0
    8.3076   -5.9202    0.1401 O   0  0  0  0  0  0
    8.1677   -4.0268    1.3961 O   0  5  0  0  0  0
   -3.4741    7.1152   -0.2248 H   0  0  0  0  0  0
   -2.0000    6.2176    0.1493 H   0  0  0  0  0  0
   -3.5733    5.5545    0.6051 H   0  0  0  0  0  0
   -4.1911    5.3918   -1.8515 H   0  0  0  0  0  0
   -2.5879    5.9610   -2.2852 H   0  0  0  0  0  0
   -3.1863    3.3655   -0.7565 H   0  0  0  0  0  0
   -2.8461    3.4755   -2.4748 H   0  0  0  0  0  0
   -0.5738    4.4461   -1.9302 H   0  0  0  0  0  0
   -0.8897    4.1902   -0.2174 H   0  0  0  0  0  0
   -0.7685    1.9250   -2.3203 H   0  0  0  0  0  0
    0.0119    2.1210    0.6306 H   0  0  0  0  0  0
   -0.1829   -0.3902    0.2576 H   0  0  0  0  0  0
    0.1064   -0.1587   -1.4627 H   0  0  0  0  0  0
    2.4177    0.6784   -0.9554 H   0  0  0  0  0  0
    2.1215    0.4936    0.7651 H   0  0  0  0  0  0
    1.7762   -1.9757    0.4492 H   0  0  0  0  0  0
    2.0662   -1.8003   -1.2726 H   0  0  0  0  0  0
    4.3966   -0.9813   -0.7997 H   0  0  0  0  0  0
    4.1091   -1.1489    0.9233 H   0  0  0  0  0  0
    3.7230   -3.6157    0.6213 H   0  0  0  0  0  0
    4.0175   -3.4510   -1.1005 H   0  0  0  0  0  0
    6.3596   -2.6443   -0.6120 H   0  0  0  0  0  0
    6.0835   -2.8231    1.1046 H   0  0  0  0  0  0
    5.6071   -5.2872    0.7471 H   0  0  0  0  0  0
    6.1553   -5.1136   -0.9143 H   0  0  0  0  0  0
  1  2  1  0  0  0
  1 17  1  0  0  0
  1 18  1  0  0  0
  1 19  1  0  0  0
  2  3  1  0  0  0
  2 20  1  0  0  0
  2 21  1  0  0  0
  3  4  1  0  0  0
  3 22  1  0  0  0
  3 23  1  0  0  0
  4  5  1  0  0  0
  4 24  1  0  0  0
  4 25  1  0  0  0
  5  6  2  0  0  0
  5 26  1  0  0  0
  6  7  1  0  0  0
  6 27  1  0  0  0
  7  8  1  0  0  0
  7 28  1  0  0  0
  7 29  1  0  0  0
  8  9  1  0  0  0
  8 30  1  0  0  0
  8 31  1  0  0  0
  9 10  1  0  0  0
  9 32  1  0  0  0
  9 33  1  0  0  0
 10 11  1  0  0  0
 10 34  1  0  0  0
 10 35  1  0  0  0
 11 12  1  0  0  0
 11 36  1  0  0  0
 11 37  1  0  0  0
 12 13  1  0  0  0
 12 38  1  0  0  0
 12 39  1  0  0  0
 13 14  1  0  0  0
 13 40  1  0  0  0
 13 41  1  0  0  0
 14 15  2  0  0  0
 14 16  1  0  0  0
M  END
>  <i_m_Spin_multiplicity> (1)
1

>  <s_j_Task> (1)
Single Point

>  <s_j_QM_Method> (1)
DFT(b3lyp-d3)

>  <s_j_QM_Basis> (1)
cc-pvtz(-f)

>  <i_j_Number_of_canonical_orbitals> (1)
588

>  <i_j_Geometry_convergence_category> (1)
0

>  <r_j_Gas_Phase_Energy> (1)
-699.326103019929

>  <r_j_Final_Energy> (1)
-699.326103019929

>  <r_j_HOMO> (1)
-0.0583302073504958

>  <r_j_LUMO> (1)
0.0851654560798221

>  <r_j_Polarizability> (1)
187.348485368462

>  <r_j_QM_Dipole_(debye)> (1)
32.9024957805737

>  <r_j_QM_Dipole_X_(debye)> (1)
-25.4002082051153

>  <r_j_QM_Dipole_Y_(debye)> (1)
20.4183715523295

>  <r_j_QM_Dipole_Z_(debye)> (1)
-4.52700285823725

>  <r_j_Lowest_Frequency_(cm-1)> (1)
33.7481814183369

>  <r_j_Highest_Frequency_(cm-1)> (1)
3064.97794242825

>  <r_j_2nd_Lowest_Frequency_(cm-1)> (1)
51.3343090683955

>  <i_j_Num_Negative_Frequencies> (1)
0

>  <r_j_Zero_Point_Energy_(kcal/mol)> (1)
229.49252012407

>  <r_j_Entropy_(cal/mol/K)_298.15K_1.00E+00atm> (1)
136.852984108292

>  <r_j_Enthalpy_(kcal/mol)_298.15K_1.00E+00atm> (1)
12.0702458050224

>  <r_j_Free_Energy_(kcal/mol)_298.15K_1.00E+00atm> (1)
-28.732471406865

>  <r_j_Internal_Energy_(kcal/mol)_298.15K_1.00E+00atm> (1)
11.4777602161951

>  <r_j_Heat_Capacity_(cal/mol/K)_298.15K_1.00E+00atm> (1)
68.4465572465255

>  <r_j_ln(Q)_298.15K_1.00E+00atm> (1)
48.4948021499327

>  <r_j_Total_Internal_Energy_(au)_298.15K_1.00E+00atm> (1)
-698.942092432264

>  <r_j_Total_Enthalpy_(au)_298.15K_1.00E+00atm> (1)
-698.941148246372

>  <r_j_Total_Free_Energy_(au)_298.15K_1.00E+00atm> (1)
-699.006171515601

>  <r_epik_Ionization_Penalty> (1)
  0.0049

>  <r_epik_Ionization_Penalty_Charging> (1)
  0.0049

>  <r_epik_Ionization_Penalty_Neutral> (1)
  0.0000

>  <r_epik_State_Penalty> (1)
  0.0035

>  <r_epik_Charging_Adjusted_Penalty> (1)
0.0083707107128699

>  <i_epik_Tot_Q> (1)
-1

>  <i_epik_Tot_abs_Q> (1)
1

>  <s_lp_Force_Field> (1)
S-OPLS

>  <r_lp_Energy> (1)
3.897366

>  <b_lp_Chiralities_Consistent> (1)
1

$$$$
