6838_N-Nitroso-N-diphenylamine
                    3D
 Schrodinger Suite 2021-3.
 25 26  0  0  1  0            999 V2000
   -2.7563   -0.0012   -0.0390 C   0  0  0  0  0  0
   -2.0586   -1.2101   -0.0222 C   0  0  0  0  0  0
   -0.6646   -1.2117    0.0055 C   0  0  0  0  0  0
    0.0285    0.0003    0.0157 C   0  0  0  0  0  0
   -0.6658    1.2115    0.0054 C   0  0  0  0  0  0
   -2.0598    1.2084   -0.0223 C   0  0  0  0  0  0
    1.4624    0.0008    0.0095 N   0  0  0  0  0  0
    2.1812    0.0005   -1.2368 C   0  0  0  0  0  0
    2.5244    1.2123   -1.8370 C   0  0  0  0  0  0
    3.1996    1.2093   -3.0567 C   0  0  0  0  0  0
    3.5336   -0.0003   -3.6682 C   0  0  0  0  0  0
    3.1964   -1.2094   -3.0577 C   0  0  0  0  0  0
    2.5212   -1.2116   -1.8380 C   0  0  0  0  0  0
    2.0948    0.0009    1.2204 N   0  0  0  0  0  0
    3.3119    0.0011    1.1547 O   0  0  0  0  0  0
   -3.8420   -0.0018   -0.0630 H   0  0  0  0  0  0
   -2.5992   -2.1516   -0.0297 H   0  0  0  0  0  0
   -0.1069   -2.1425    0.0198 H   0  0  0  0  0  0
   -0.1091    2.1429    0.0194 H   0  0  0  0  0  0
   -2.6015    2.1494   -0.0298 H   0  0  0  0  0  0
    2.2612    2.1437   -1.3463 H   0  0  0  0  0  0
    3.4656    2.1504   -3.5285 H   0  0  0  0  0  0
    4.0582   -0.0005   -4.6190 H   0  0  0  0  0  0
    3.4599   -2.1508   -3.5304 H   0  0  0  0  0  0
    2.2555   -2.1427   -1.3482 H   0  0  0  0  0  0
  1  6  1  0  0  0
  1  2  2  0  0  0
  1 16  1  0  0  0
  2  3  1  0  0  0
  2 17  1  0  0  0
  3  4  2  0  0  0
  3 18  1  0  0  0
  4  5  1  0  0  0
  4  7  1  0  0  0
  5  6  2  0  0  0
  5 19  1  0  0  0
  6 20  1  0  0  0
  7  8  1  0  0  0
  7 14  1  0  0  0
  8 13  1  0  0  0
  8  9  2  0  0  0
  9 10  1  0  0  0
  9 21  1  0  0  0
 10 11  2  0  0  0
 10 22  1  0  0  0
 11 12  1  0  0  0
 11 23  1  0  0  0
 12 13  2  0  0  0
 12 24  1  0  0  0
 13 25  1  0  0  0
 14 15  2  0  0  0
M  END
>  <i_m_Spin_multiplicity> (1)
1

>  <s_j_Task> (1)
Single Point

>  <s_j_QM_Method> (1)
DFT(b3lyp-d3)

>  <s_j_QM_Basis> (1)
cc-pvtz(-f)

>  <i_j_Number_of_canonical_orbitals> (1)
426

>  <i_j_Geometry_convergence_category> (1)
0

>  <r_j_Gas_Phase_Energy> (1)
-648.160759275345

>  <r_j_Final_Energy> (1)
-648.160759275345

>  <r_j_HOMO> (1)
-0.234055993349201

>  <r_j_LUMO> (1)
-0.0470981801997915

>  <r_j_Polarizability> (1)
148.291773435845

>  <r_j_QM_Dipole_(debye)> (1)
4.14322852278479

>  <r_j_QM_Dipole_X_(debye)> (1)
-2.71948362148618

>  <r_j_QM_Dipole_Y_(debye)> (1)
-0.00100590074571488

>  <r_j_QM_Dipole_Z_(debye)> (1)
-3.12581995845083

>  <r_j_Lowest_Frequency_(cm-1)> (1)
43.7238406658722

>  <r_j_Highest_Frequency_(cm-1)> (1)
3157.27243270449

>  <r_j_2nd_Lowest_Frequency_(cm-1)> (1)
60.7496009945041

>  <i_j_Num_Negative_Frequencies> (1)
0

>  <r_j_Zero_Point_Energy_(kcal/mol)> (1)
121.383441088086

>  <r_j_Entropy_(cal/mol/K)_298.15K_1.00E+00atm> (1)
105.804012456322

>  <r_j_Enthalpy_(kcal/mol)_298.15K_1.00E+00atm> (1)
7.82329965072873

>  <r_j_Free_Energy_(kcal/mol)_298.15K_1.00E+00atm> (1)
-23.7221666631237

>  <r_j_Internal_Energy_(kcal/mol)_298.15K_1.00E+00atm> (1)
7.23081406190146

>  <r_j_Heat_Capacity_(cal/mol/K)_298.15K_1.00E+00atm> (1)
46.19665705157

>  <r_j_ln(Q)_298.15K_1.00E+00atm> (1)
40.0383859294835

>  <r_j_Total_Internal_Energy_(au)_298.15K_1.00E+00atm> (1)
-647.95579941211

>  <r_j_Total_Enthalpy_(au)_298.15K_1.00E+00atm> (1)
-647.954855226217

>  <r_j_Total_Free_Energy_(au)_298.15K_1.00E+00atm> (1)
-648.005126127012

>  <r_lp_tautomer_probability> (1)
1

>  <r_epik_Ionization_Penalty> (1)
  0.0000

>  <r_epik_Ionization_Penalty_Charging> (1)
  0.0000

>  <r_epik_Ionization_Penalty_Neutral> (1)
  0.0000

>  <r_epik_State_Penalty> (1)
  0.0000

>  <r_epik_Charging_Adjusted_Penalty> (1)
0

>  <i_epik_Tot_Q> (1)
0

>  <i_epik_Tot_abs_Q> (1)
0

>  <s_lp_Force_Field> (1)
S-OPLS

>  <r_lp_Energy> (1)
38.8375

>  <b_lp_Chiralities_Consistent> (1)
1

$$$$
