6853_Fluorene
                    3D
 Schrodinger Suite 2021-3.
 23 25  0  0  1  0            999 V2000
   -2.1550   -0.3409   -5.6829 C   0  0  0  0  0  0
   -3.6319   -0.3808   -5.3449 C   0  0  0  0  0  0
   -4.2613   -0.7655   -4.1677 C   0  0  0  0  0  0
   -5.6579   -0.7139   -4.0978 C   0  0  0  0  0  0
   -6.4112   -0.2821   -5.1948 C   0  0  0  0  0  0
   -5.7837    0.1055   -6.3796 C   0  0  0  0  0  0
   -4.3907    0.0545   -6.4501 C   0  0  0  0  0  0
   -3.4734    0.3947   -7.5441 C   0  0  0  0  0  0
   -3.7269    0.8681   -8.8324 C   0  0  0  0  0  0
   -2.6477    1.1138   -9.6825 C   0  0  0  0  0  0
   -1.3357    0.8897   -9.2516 C   0  0  0  0  0  0
   -1.0807    0.4148   -7.9603 C   0  0  0  0  0  0
   -2.1515    0.1685   -7.1103 C   0  0  0  0  0  0
   -1.6883   -1.3312   -5.5997 H   0  0  0  0  0  0
   -1.5988    0.3241   -5.0096 H   0  0  0  0  0  0
   -3.6813   -1.1018   -3.3123 H   0  0  0  0  0  0
   -6.1627   -1.0119   -3.1834 H   0  0  0  0  0  0
   -7.4946   -0.2485   -5.1226 H   0  0  0  0  0  0
   -6.3700    0.4406   -7.2306 H   0  0  0  0  0  0
   -4.7452    1.0427   -9.1683 H   0  0  0  0  0  0
   -2.8272    1.4826  -10.6884 H   0  0  0  0  0  0
   -0.5077    1.0866   -9.9265 H   0  0  0  0  0  0
   -0.0594    0.2425   -7.6309 H   0  0  0  0  0  0
  1 13  1  0  0  0
  1  2  1  0  0  0
  1 14  1  0  0  0
  1 15  1  0  0  0
  2  7  1  0  0  0
  2  3  2  0  0  0
  3  4  1  0  0  0
  3 16  1  0  0  0
  4  5  2  0  0  0
  4 17  1  0  0  0
  5  6  1  0  0  0
  5 18  1  0  0  0
  6  7  2  0  0  0
  6 19  1  0  0  0
  7  8  1  0  0  0
  8 13  1  0  0  0
  8  9  2  0  0  0
  9 10  1  0  0  0
  9 20  1  0  0  0
 10 11  2  0  0  0
 10 21  1  0  0  0
 11 12  1  0  0  0
 11 22  1  0  0  0
 12 13  2  0  0  0
 12 23  1  0  0  0
M  END
>  <i_m_Spin_multiplicity> (1)
1

>  <s_j_Task> (1)
Single Point

>  <s_j_QM_Method> (1)
DFT(b3lyp-d3)

>  <s_j_QM_Basis> (1)
cc-pvtz(-f)

>  <i_j_Number_of_canonical_orbitals> (1)
379

>  <i_j_Geometry_convergence_category> (1)
3

>  <r_j_Gas_Phase_Energy> (1)
-501.588235087161

>  <r_j_Final_Energy> (1)
-501.588235087161

>  <r_j_HOMO> (1)
-0.1814166922615

>  <r_j_LUMO> (1)
-0.00117711782940512

>  <r_j_Polarizability> (1)
145.569817254841

>  <r_j_QM_Dipole_(debye)> (1)
0.531087084067794

>  <r_j_QM_Dipole_X_(debye)> (1)
0.413560947189614

>  <r_j_QM_Dipole_Y_(debye)> (1)
-0.130653160710911

>  <r_j_QM_Dipole_Z_(debye)> (1)
0.306513597446362

>  <r_j_Lowest_Frequency_(cm-1)> (1)
116.837155929485

>  <r_j_Highest_Frequency_(cm-1)> (1)
3146.08911664577

>  <r_j_2nd_Lowest_Frequency_(cm-1)> (1)
154.794752049036

>  <i_j_Num_Negative_Frequencies> (1)
0

>  <r_j_Zero_Point_Energy_(kcal/mol)> (1)
117.243338757019

>  <r_j_Entropy_(cal/mol/K)_298.15K_1.00E+00atm> (1)
91.5416549312729

>  <r_j_Enthalpy_(kcal/mol)_298.15K_1.00E+00atm> (1)
6.07923291363677

>  <r_j_Free_Energy_(kcal/mol)_298.15K_1.00E+00atm> (1)
-21.2139115041223

>  <r_j_Internal_Energy_(kcal/mol)_298.15K_1.00E+00atm> (1)
5.48674732480949

>  <r_j_Heat_Capacity_(cal/mol/K)_298.15K_1.00E+00atm> (1)
37.6509666553043

>  <r_j_ln(Q)_298.15K_1.00E+00atm> (1)
35.8049409203549

>  <r_j_Total_Internal_Energy_(au)_298.15K_1.00E+00atm> (1)
-501.392652244273

>  <r_j_Total_Enthalpy_(au)_298.15K_1.00E+00atm> (1)
-501.391708058381

>  <r_j_Total_Free_Energy_(au)_298.15K_1.00E+00atm> (1)
-501.435202452844

>  <r_lp_tautomer_probability> (1)
1

>  <r_epik_Ionization_Penalty> (1)
  0.0000

>  <r_epik_Ionization_Penalty_Charging> (1)
  0.0000

>  <r_epik_Ionization_Penalty_Neutral> (1)
  0.0000

>  <r_epik_State_Penalty> (1)
  0.0000

>  <r_epik_Charging_Adjusted_Penalty> (1)
0

>  <i_epik_Tot_Q> (1)
0

>  <i_epik_Tot_abs_Q> (1)
0

>  <s_lp_Force_Field> (1)
S-OPLS

>  <r_lp_Energy> (1)
10.5083

>  <b_lp_Chiralities_Consistent> (1)
1

$$$$
