6854_Carbazole
                    3D
 Schrodinger Suite 2021-3.
 22 24  0  0  1  0            999 V2000
   -1.5232    1.8151   -0.0596 C   0  0  0  0  0  0
   -0.3010    1.1215   -0.0945 C   0  0  0  0  0  0
    0.9166    1.7976   -0.1086 C   0  0  0  0  0  0
    0.8816    3.1928   -0.0868 C   0  0  0  0  0  0
   -0.3424    3.9114   -0.0515 C   0  0  0  0  0  0
   -1.5507    3.2065   -0.0380 C   0  0  0  0  0  0
    0.0009    5.3188   -0.0369 C   0  0  0  0  0  0
   -0.7472    6.5004   -0.0038 C   0  0  0  0  0  0
   -0.0818    7.7231    0.0017 C   0  0  0  0  0  0
    1.3229    7.7773   -0.0255 C   0  0  0  0  0  0
    2.0921    6.6165   -0.0588 C   0  0  0  0  0  0
    1.4186    5.3939   -0.0640 C   0  0  0  0  0  0
    1.9258    4.1042   -0.0939 N   0  0  0  0  0  0
   -2.4539    1.2562   -0.0494 H   0  0  0  0  0  0
   -0.3041    0.0355   -0.1108 H   0  0  0  0  0  0
    1.8587    1.2580   -0.1356 H   0  0  0  0  0  0
   -2.4959    3.7405   -0.0111 H   0  0  0  0  0  0
   -1.8325    6.4606    0.0173 H   0  0  0  0  0  0
   -0.6511    8.6472    0.0273 H   0  0  0  0  0  0
    1.8203    8.7426   -0.0206 H   0  0  0  0  0  0
    3.1770    6.6614   -0.0797 H   0  0  0  0  0  0
    2.9031    3.8656   -0.1172 H   0  0  0  0  0  0
  1  6  1  0  0  0
  1  2  2  0  0  0
  1 14  1  0  0  0
  2  3  1  0  0  0
  2 15  1  0  0  0
  3  4  2  0  0  0
  3 16  1  0  0  0
  4 13  1  0  0  0
  4  5  1  0  0  0
  5  6  2  0  0  0
  5  7  1  0  0  0
  6 17  1  0  0  0
  7 12  1  0  0  0
  7  8  2  0  0  0
  8  9  1  0  0  0
  8 18  1  0  0  0
  9 10  2  0  0  0
  9 19  1  0  0  0
 10 11  1  0  0  0
 10 20  1  0  0  0
 11 12  2  0  0  0
 11 21  1  0  0  0
 12 13  1  0  0  0
 13 22  1  0  0  0
M  END
>  <i_m_Spin_multiplicity> (1)
1

>  <s_j_Task> (1)
Single Point

>  <s_j_QM_Method> (1)
DFT(b3lyp-d3)

>  <s_j_QM_Basis> (1)
cc-pvtz(-f)

>  <i_j_Number_of_canonical_orbitals> (1)
370

>  <i_j_Geometry_convergence_category> (1)
3

>  <r_j_Gas_Phase_Energy> (1)
-517.641930398687

>  <r_j_Final_Energy> (1)
-517.641930398687

>  <r_j_HOMO> (1)
-0.184124357716332

>  <r_j_LUMO> (1)
-0.013118174977911

>  <r_j_Polarizability> (1)
145.159227030816

>  <r_j_QM_Dipole_(debye)> (1)
1.68245046679019

>  <r_j_QM_Dipole_X_(debye)> (1)
1.63394243362344

>  <r_j_QM_Dipole_Y_(debye)> (1)
-0.399222197740654

>  <r_j_QM_Dipole_Z_(debye)> (1)
-0.0386436752694875

>  <r_j_Lowest_Frequency_(cm-1)> (1)
121.204117057769

>  <r_j_Highest_Frequency_(cm-1)> (1)
3627.60095041311

>  <r_j_2nd_Lowest_Frequency_(cm-1)> (1)
165.2544243155

>  <i_j_Num_Negative_Frequencies> (1)
0

>  <r_j_Zero_Point_Energy_(kcal/mol)> (1)
110.091381290271

>  <r_j_Entropy_(cal/mol/K)_298.15K_1.00E+00atm> (1)
91.5193030369701

>  <r_j_Enthalpy_(kcal/mol)_298.15K_1.00E+00atm> (1)
6.11164063439898

>  <r_j_Free_Energy_(kcal/mol)_298.15K_1.00E+00atm> (1)
-21.1748395660736

>  <r_j_Internal_Energy_(kcal/mol)_298.15K_1.00E+00atm> (1)
5.51915504557171

>  <r_j_Heat_Capacity_(cal/mol/K)_298.15K_1.00E+00atm> (1)
37.7820519260364

>  <r_j_ln(Q)_298.15K_1.00E+00atm> (1)
35.7389951171398

>  <r_j_Total_Internal_Energy_(au)_298.15K_1.00E+00atm> (1)
-517.457693280583

>  <r_j_Total_Enthalpy_(au)_298.15K_1.00E+00atm> (1)
-517.456749094691

>  <r_j_Total_Free_Energy_(au)_298.15K_1.00E+00atm> (1)
-517.500232869048

>  <r_lp_tautomer_probability> (1)
1

>  <r_epik_Ionization_Penalty> (1)
  0.0000

>  <r_epik_Ionization_Penalty_Charging> (1)
  0.0000

>  <r_epik_Ionization_Penalty_Neutral> (1)
  0.0000

>  <r_epik_State_Penalty> (1)
  0.0000

>  <r_epik_Charging_Adjusted_Penalty> (1)
0

>  <i_epik_Tot_Q> (1)
0

>  <i_epik_Tot_abs_Q> (1)
0

>  <s_lp_Force_Field> (1)
S-OPLS

>  <r_lp_Energy> (1)
20.610986

>  <b_lp_Chiralities_Consistent> (1)
1

$$$$
