6857529_βαα 20R 24R-Ethylcholestane
                    3D
 Schrodinger Suite 2021-3.
 81 84  0  0  1  0            999 V2000
   -0.7600   -2.1060    0.6730 C   0  0  0  0  0  0
   -1.0932   -0.6205    0.8545 C   0  0  0  0  0  0
   -0.3372    0.3371   -0.0965 C   0  0  2  0  0  0
    1.1860    0.0721   -0.0974 C   0  0  0  0  0  0
    1.8992    0.3339    1.2375 C   0  0  0  0  0  0
    3.4227    0.0705    1.1869 C   0  0  2  0  0  0
    3.7105   -1.4364    1.0771 C   0  0  0  0  0  0
    4.1337    0.7838    2.3726 C   0  0  1  0  0  0
    3.8245    0.1451    3.7567 C   0  0  0  0  0  0
    5.1018   -0.6161    4.1980 C   0  0  0  0  0  0
    6.1659   -0.4091    3.0875 C   0  0  1  0  0  0
    5.6989    0.8698    2.3285 C   0  0  2  0  0  0
    6.1365    2.1168    3.1398 C   0  0  0  0  0  0
    7.6225    2.1234    3.5240 C   0  0  0  0  0  0
    7.9855    0.8965    4.3852 C   0  0  1  0  0  0
    7.6154   -0.4156    3.6337 C   0  0  2  0  0  0
    8.6519   -0.7743    2.5487 C   0  0  0  0  0  0
   10.0820   -0.8215    3.0967 C   0  0  0  0  0  0
   10.4512    0.5013    3.7809 C   0  0  1  0  0  0
    9.4590    0.8607    4.9312 C   0  0  1  0  0  0
    9.8764    2.2404    5.5049 C   0  0  0  0  0  0
   11.3364    2.2879    5.9850 C   0  0  0  0  0  0
   12.2973    1.8931    4.8531 C   0  0  0  0  0  0
   11.9209    0.5372    4.2371 C   0  0  0  0  0  0
    9.5097   -0.1764    6.0798 C   0  0  0  0  0  0
    6.2376    0.9992    0.8939 C   0  0  0  0  0  0
   -0.7012    1.8227    0.1865 C   0  0  0  0  0  0
   -2.1989    2.0982   -0.0324 C   0  0  0  0  0  0
    0.1221    2.8012   -0.6677 C   0  0  0  0  0  0
   -1.4316   -2.7307    1.2709 H   0  0  0  0  0  0
    0.2641   -2.3395    0.9803 H   0  0  0  0  0  0
   -0.8691   -2.4101   -0.3749 H   0  0  0  0  0  0
   -2.1699   -0.4915    0.7039 H   0  0  0  0  0  0
   -0.8994   -0.3286    1.8956 H   0  0  0  0  0  0
   -0.6855    0.1175   -1.1194 H   0  0  0  0  0  0
    1.3519   -0.9635   -0.4103 H   0  0  0  0  0  0
    1.6579    0.6829   -0.8756 H   0  0  0  0  0  0
    1.7310    1.3771    1.5325 H   0  0  0  0  0  0
    1.4467   -0.2784    2.0282 H   0  0  0  0  0  0
    3.7839    0.5444    0.2645 H   0  0  0  0  0  0
    3.4570   -1.9603    2.0054 H   0  0  0  0  0  0
    4.7608   -1.6387    0.8584 H   0  0  0  0  0  0
    3.1236   -1.8927    0.2746 H   0  0  0  0  0  0
    3.7539    1.8146    2.3495 H   0  0  0  0  0  0
    3.5713    0.9213    4.4852 H   0  0  0  0  0  0
    2.9531   -0.5142    3.7112 H   0  0  0  0  0  0
    5.4664   -0.2285    5.1551 H   0  0  0  0  0  0
    4.9138   -1.6837    4.3534 H   0  0  0  0  0  0
    6.0920   -1.2544    2.3944 H   0  0  0  0  0  0
    5.8934    3.0199    2.5646 H   0  0  0  0  0  0
    5.5474    2.1791    4.0640 H   0  0  0  0  0  0
    8.2485    2.1655    2.6254 H   0  0  0  0  0  0
    7.8244    3.0459    4.0755 H   0  0  0  0  0  0
    7.3395    0.9578    5.2743 H   0  0  0  0  0  0
    7.6475   -1.2353    4.3643 H   0  0  0  0  0  0
    8.3811   -1.7389    2.1008 H   0  0  0  0  0  0
    8.6180   -0.0438    1.7339 H   0  0  0  0  0  0
   10.1904   -1.6535    3.8051 H   0  0  0  0  0  0
   10.7888   -1.0224    2.2813 H   0  0  0  0  0  0
   10.3425    1.2933    3.0225 H   0  0  0  0  0  0
    9.7666    3.0034    4.7260 H   0  0  0  0  0  0
    9.1933    2.5233    6.3172 H   0  0  0  0  0  0
   11.5708    3.2980    6.3423 H   0  0  0  0  0  0
   11.4818    1.6211    6.8435 H   0  0  0  0  0  0
   12.2546    2.6620    4.0681 H   0  0  0  0  0  0
   13.3321    1.8753    5.2157 H   0  0  0  0  0  0
   12.1072   -0.2665    4.9617 H   0  0  0  0  0  0
   12.5686    0.3239    3.3769 H   0  0  0  0  0  0
   10.5131   -0.2957    6.4930 H   0  0  0  0  0  0
    9.1757   -1.1672    5.7665 H   0  0  0  0  0  0
    8.8560    0.1453    6.8983 H   0  0  0  0  0  0
    7.2982    1.2582    0.8772 H   0  0  0  0  0  0
    5.7084    1.7963    0.3586 H   0  0  0  0  0  0
    6.1206    0.0751    0.3210 H   0  0  0  0  0  0
   -0.4767    2.0288    1.2434 H   0  0  0  0  0  0
   -2.4907    1.8541   -1.0618 H   0  0  0  0  0  0
   -2.4258    3.1567    0.1330 H   0  0  0  0  0  0
   -2.8359    1.5198    0.6413 H   0  0  0  0  0  0
    0.0126    2.5739   -1.7355 H   0  0  0  0  0  0
    1.1885    2.7711   -0.4280 H   0  0  0  0  0  0
   -0.2187    3.8303   -0.5124 H   0  0  0  0  0  0
  1  2  1  0  0  0
  1 30  1  0  0  0
  1 31  1  0  0  0
  1 32  1  0  0  0
  2  3  1  0  0  0
  2 33  1  0  0  0
  2 34  1  0  0  0
  3  4  1  0  0  0
  3 27  1  0  0  0
  3 35  1  0  0  0
  4  5  1  0  0  0
  4 36  1  0  0  0
  4 37  1  0  0  0
  5  6  1  0  0  0
  5 38  1  0  0  0
  5 39  1  0  0  0
  6  7  1  0  0  0
  6  8  1  0  0  0
  6 40  1  0  0  0
  7 41  1  0  0  0
  7 42  1  0  0  0
  7 43  1  0  0  0
  8 12  1  0  0  0
  8  9  1  0  0  0
  8 44  1  0  0  0
  9 10  1  0  0  0
  9 45  1  0  0  0
  9 46  1  0  0  0
 10 11  1  0  0  0
 10 47  1  0  0  0
 10 48  1  0  0  0
 11 16  1  0  0  0
 11 12  1  0  0  0
 11 49  1  0  0  0
 12 13  1  0  0  0
 12 26  1  0  0  0
 13 14  1  0  0  0
 13 50  1  0  0  0
 13 51  1  0  0  0
 14 15  1  0  0  0
 14 52  1  0  0  0
 14 53  1  0  0  0
 15 20  1  0  0  0
 15 16  1  0  0  0
 15 54  1  0  0  0
 16 17  1  0  0  0
 16 55  1  0  0  0
 17 18  1  0  0  0
 17 56  1  0  0  0
 17 57  1  0  0  0
 18 19  1  0  0  0
 18 58  1  0  0  0
 18 59  1  0  0  0
 19 24  1  0  0  0
 19 20  1  0  0  0
 19 60  1  0  0  0
 20 21  1  0  0  0
 20 25  1  0  0  0
 21 22  1  0  0  0
 21 61  1  0  0  0
 21 62  1  0  0  0
 22 23  1  0  0  0
 22 63  1  0  0  0
 22 64  1  0  0  0
 23 24  1  0  0  0
 23 65  1  0  0  0
 23 66  1  0  0  0
 24 67  1  0  0  0
 24 68  1  0  0  0
 25 69  1  0  0  0
 25 70  1  0  0  0
 25 71  1  0  0  0
 26 72  1  0  0  0
 26 73  1  0  0  0
 26 74  1  0  0  0
 27 28  1  0  0  0
 27 29  1  0  0  0
 27 75  1  0  0  0
 28 76  1  0  0  0
 28 77  1  0  0  0
 28 78  1  0  0  0
 29 79  1  0  0  0
 29 80  1  0  0  0
 29 81  1  0  0  0
M  END
> <i_m_Spin_multiplicity>
1

> <s_j_Task>
Single Point

> <s_j_QM_Method>
DFT(b3lyp-d3)

> <s_j_QM_Basis>
cc-pvtz(-f)

> <i_j_Number_of_canonical_orbitals>
1116

> <i_j_Geometry_convergence_category>
3

> <r_j_Gas_Phase_Energy>
-1136.90417412418

> <r_j_Final_Energy>
-1136.90417412418

> <r_j_HOMO>
-0.282006022770618

> <r_j_LUMO>
0.00439381103324294

> <r_j_Polarizability>
329.182835962258

> <r_j_QM_Dipole_(debye)>
0.124296931159235

> <r_j_QM_Dipole_X_(debye)>
0.0291064668914029

> <r_j_QM_Dipole_Y_(debye)>
0.117884373728799

> <r_j_QM_Dipole_Z_(debye)>
0.0265671810938272

> <r_j_Lowest_Frequency_(cm-1)>
38.4497952699967

> <r_j_Highest_Frequency_(cm-1)>
3081.29597880571

> <r_j_2nd_Lowest_Frequency_(cm-1)>
43.7829034896939

> <i_j_Num_Negative_Frequencies>
0

> <r_j_Zero_Point_Energy_(kcal/mol)>
477.77956326719

> <r_j_Entropy_(cal/mol/K)_298.15K_1.00E+00atm>
173.609772893052

> <r_j_Enthalpy_(kcal/mol)_298.15K_1.00E+00atm>
18.5241916769827

> <r_j_Free_Energy_(kcal/mol)_298.15K_1.00E+00atm>
-33.2375621110807

> <r_j_Internal_Energy_(kcal/mol)_298.15K_1.00E+00atm>
17.9317060881554

> <r_j_Heat_Capacity_(cal/mol/K)_298.15K_1.00E+00atm>
123.066041783396

> <r_j_ln(Q)_298.15K_1.00E+00atm>
56.0985157071396

> <r_j_Total_Internal_Energy_(au)_298.15K_1.00E+00atm>
-1136.11420792756

> <r_j_Total_Enthalpy_(au)_298.15K_1.00E+00atm>
-1136.11326374167

> <r_j_Total_Free_Energy_(au)_298.15K_1.00E+00atm>
-1136.19575134746

> <r_lp_tautomer_probability>
1

> <r_epik_Ionization_Penalty>
  0.0000

> <r_epik_Ionization_Penalty_Charging>
  0.0000

> <r_epik_Ionization_Penalty_Neutral>
  0.0000

> <r_epik_State_Penalty>
  0.0000

> <r_epik_Charging_Adjusted_Penalty>
0

> <i_epik_Tot_Q>
0

> <i_epik_Tot_abs_Q>
0

> <s_lp_Force_Field>
S-OPLS

> <r_lp_Energy>
60.6465

> <b_lp_Chiralities_Consistent>
1

$$$$
