6914_2,4,6-Trichlorophenol
                    3D
 Schrodinger Suite 2021-3.
 12 12  0  0  1  0            999 V2000
    0.0000    1.4062    0.0104 C   0  0  0  0  0  0
    1.2022    2.1140    0.0024 C   0  0  0  0  0  0
    2.4217    1.4363   -0.0135 C   0  0  0  0  0  0
    2.4219    0.0508   -0.0212 C   0  0  0  0  0  0
    1.2383   -0.8001   -0.0142 C   0  0  0  0  0  0
    0.0340    0.0210    0.0024 C   0  0  0  0  0  0
   -1.5163   -0.8461    0.0131 Cl  0  0  0  0  0  0
    1.2539   -2.0473   -0.0212 O   0  5  0  0  0  0
    3.9932   -0.7774   -0.0415 Cl  0  0  0  0  0  0
    1.1801    3.8971    0.0125 Cl  0  0  0  0  0  0
   -0.9493    1.9300    0.0228 H   0  0  0  0  0  0
    3.3576    1.9836   -0.0198 H   0  0  0  0  0  0
  1  6  1  0  0  0
  1  2  2  0  0  0
  1 11  1  0  0  0
  2  3  1  0  0  0
  2 10  1  0  0  0
  3  4  2  0  0  0
  3 12  1  0  0  0
  4  5  1  0  0  0
  4  9  1  0  0  0
  5  6  2  0  0  0
  5  8  1  0  0  0
  6  7  1  0  0  0
M  END
>  <i_m_Spin_multiplicity> (1)
1

>  <s_j_Task> (1)
Single Point

>  <s_j_QM_Method> (1)
DFT(b3lyp-d3)

>  <s_j_QM_Basis> (1)
cc-pvtz(-f)

>  <i_j_Number_of_canonical_orbitals> (1)
256

>  <i_j_Geometry_convergence_category> (1)
3

>  <r_j_Gas_Phase_Energy> (1)
-1685.92825456279

>  <r_j_Final_Energy> (1)
-1685.92825456279

>  <r_j_HOMO> (1)
-0.0401376414852882

>  <r_j_LUMO> (1)
0.123957293555351

>  <r_j_Polarizability> (1)
114.596417300614

>  <r_j_QM_Dipole_(debye)> (1)
4.24775785027467

>  <r_j_QM_Dipole_X_(debye)> (1)
-0.0526123350900309

>  <r_j_QM_Dipole_Y_(debye)> (1)
4.24736413835281

>  <r_j_QM_Dipole_Z_(debye)> (1)
0.0240119345538634

>  <r_j_Lowest_Frequency_(cm-1)> (1)
92.8638700088367

>  <r_j_Highest_Frequency_(cm-1)> (1)
3153.38553623137

>  <r_j_2nd_Lowest_Frequency_(cm-1)> (1)
136.732504730392

>  <i_j_Num_Negative_Frequencies> (1)
0

>  <r_j_Zero_Point_Energy_(kcal/mol)> (1)
39.0773563878738

>  <r_j_Entropy_(cal/mol/K)_298.15K_1.00E+00atm> (1)
95.2589613543046

>  <r_j_Enthalpy_(kcal/mol)_298.15K_1.00E+00atm> (1)
6.18674369592293

>  <r_j_Free_Energy_(kcal/mol)_298.15K_1.00E+00atm> (1)
-22.214715631863

>  <r_j_Internal_Energy_(kcal/mol)_298.15K_1.00E+00atm> (1)
5.59425810709565

>  <r_j_Heat_Capacity_(cal/mol/K)_298.15K_1.00E+00atm> (1)
31.9457326830213

>  <r_j_ln(Q)_298.15K_1.00E+00atm> (1)
37.4941028959595

>  <r_j_Total_Internal_Energy_(au)_298.15K_1.00E+00atm> (1)
-1685.85706581325

>  <r_j_Total_Enthalpy_(au)_298.15K_1.00E+00atm> (1)
-1685.85612162736

>  <r_j_Total_Free_Energy_(au)_298.15K_1.00E+00atm> (1)
-1685.90138223406

>  <r_epik_Ionization_Penalty> (1)
  0.1345

>  <r_epik_Ionization_Penalty_Charging> (1)
  0.1345

>  <r_epik_Ionization_Penalty_Neutral> (1)
  0.0000

>  <r_epik_State_Penalty> (1)
  0.1238

>  <r_epik_Charging_Adjusted_Penalty> (1)
0.258322

>  <i_epik_Tot_Q> (1)
-1

>  <i_epik_Tot_abs_Q> (1)
1

>  <s_lp_Force_Field> (1)
S-OPLS

>  <r_lp_Energy> (1)
19.2323

>  <b_lp_Chiralities_Consistent> (1)
1

$$$$
