6919_Furancarboxylic acid
                    3D
 Schrodinger Suite 2021-3.
 11 11  0  0  1  0            999 V2000
   -2.2016   -0.3625    0.0000 C   0  0  0  0  0  0
   -1.9790    0.9840    0.0000 C   0  0  0  0  0  0
   -0.6450    1.2484    0.0000 O   0  0  0  0  0  0
    0.0205    0.0397    0.0000 C   0  0  0  0  0  0
   -0.9051   -0.9698    0.0000 C   0  0  0  0  0  0
    1.5571   -0.0001    0.0000 C   0  0  0  0  0  0
    2.0044   -1.1744    0.0000 O   0  0  0  0  0  0
    2.1379    1.1075    0.0000 O   0  5  0  0  0  0
   -3.1679   -0.8518    0.0000 H   0  0  0  0  0  0
   -2.6364    1.8425    0.0000 H   0  0  0  0  0  0
   -0.6481   -2.0179    0.0000 H   0  0  0  0  0  0
  1  5  1  0  0  0
  1  2  2  0  0  0
  1  9  1  0  0  0
  2  3  1  0  0  0
  2 10  1  0  0  0
  3  4  1  0  0  0
  4  5  2  0  0  0
  4  6  1  0  0  0
  5 11  1  0  0  0
  6  7  2  0  0  0
  6  8  1  0  0  0
M  END
>  <i_m_Spin_multiplicity> (1)
1

>  <s_j_Task> (1)
Single Point

>  <s_j_QM_Method> (1)
DFT(b3lyp-d3)

>  <s_j_QM_Basis> (1)
cc-pvtz(-f)

>  <i_j_Number_of_canonical_orbitals> (1)
210

>  <i_j_Geometry_convergence_category> (1)
0

>  <r_j_Gas_Phase_Energy> (1)
-418.190325832166

>  <r_j_Final_Energy> (1)
-418.190325832166

>  <r_j_HOMO> (1)
-0.046317207643924

>  <r_j_LUMO> (1)
0.138685687256093

>  <r_j_Polarizability> (1)
65.9390295806619

>  <r_j_QM_Dipole_(debye)> (1)
7.76266693478541

>  <r_j_QM_Dipole_X_(debye)> (1)
-7.75822030417189

>  <r_j_QM_Dipole_Y_(debye)> (1)
0.262708302768824

>  <r_j_QM_Dipole_Z_(debye)> (1)
-1.44214666139545e-06

>  <r_j_Lowest_Frequency_(cm-1)> (1)
102.982712981719

>  <r_j_Highest_Frequency_(cm-1)> (1)
3219.79120710262

>  <r_j_2nd_Lowest_Frequency_(cm-1)> (1)
197.629238424894

>  <i_j_Num_Negative_Frequencies> (1)
0

>  <r_j_Zero_Point_Energy_(kcal/mol)> (1)
44.4804286746883

>  <r_j_Entropy_(cal/mol/K)_298.15K_1.00E+00atm> (1)
79.560371798244

>  <r_j_Enthalpy_(kcal/mol)_298.15K_1.00E+00atm> (1)
4.45390117949503

>  <r_j_Free_Energy_(kcal/mol)_298.15K_1.00E+00atm> (1)
-19.2670236721514

>  <r_j_Internal_Energy_(kcal/mol)_298.15K_1.00E+00atm> (1)
3.86141559066775

>  <r_j_Heat_Capacity_(cal/mol/K)_298.15K_1.00E+00atm> (1)
22.2538004807666

>  <r_j_ln(Q)_298.15K_1.00E+00atm> (1)
32.5189743606883

>  <r_j_Total_Internal_Energy_(au)_298.15K_1.00E+00atm> (1)
-418.113288199148

>  <r_j_Total_Enthalpy_(au)_298.15K_1.00E+00atm> (1)
-418.112344013256

>  <r_j_Total_Free_Energy_(au)_298.15K_1.00E+00atm> (1)
-418.150145713446

>  <r_lp_tautomer_probability> (1)
1

>  <r_epik_Ionization_Penalty> (1)
  0.0001

>  <r_epik_Ionization_Penalty_Charging> (1)
  0.0001

>  <r_epik_Ionization_Penalty_Neutral> (1)
  0.0000

>  <r_epik_State_Penalty> (1)
  0.0000

>  <r_epik_Charging_Adjusted_Penalty> (1)
7.99187e-05

>  <i_epik_Tot_Q> (1)
-1

>  <i_epik_Tot_abs_Q> (1)
1

>  <s_lp_Force_Field> (1)
S-OPLS

>  <r_lp_Energy> (1)
9.28319

>  <b_lp_Chiralities_Consistent> (1)
1

$$$$
