6947_2-Nitrophenol
                    3D
 Schrodinger Suite 2021-3.
 14 14  0  0  1  0            999 V2000
   -2.0514    1.2243   -0.1229 C   0  0  0  0  0  0
   -2.7689    0.0047   -0.0142 C   0  0  0  0  0  0
   -2.1122   -1.1916    0.1017 C   0  0  0  0  0  0
   -0.6532   -1.3288    0.1243 C   0  0  0  0  0  0
    0.0361   -0.0329    0.0082 C   0  0  0  0  0  0
   -0.6736    1.1809   -0.1094 C   0  0  0  0  0  0
    1.4658    0.0613    0.0090 N   0  3  1  0  0  0
    2.1556   -0.9651    0.1055 O   0  0  0  0  0  0
    1.9976    1.1981   -0.0897 O   0  5  0  0  0  0
   -0.1288   -2.4551    0.2331 O   0  5  0  0  0  0
   -2.5745    2.1723   -0.2149 H   0  0  0  0  0  0
   -3.8597    0.0221   -0.0233 H   0  0  0  0  0  0
   -2.6565   -2.1296    0.1854 H   0  0  0  0  0  0
   -0.0866    2.0885   -0.1900 H   0  0  0  0  0  0
  1  6  1  0  0  0
  1  2  2  0  0  0
  1 11  1  0  0  0
  2  3  1  0  0  0
  2 12  1  0  0  0
  3  4  2  0  0  0
  3 13  1  0  0  0
  4  5  1  0  0  0
  4 10  1  0  0  0
  5  6  2  0  0  0
  5  7  1  0  0  0
  6 14  1  0  0  0
  7  8  2  0  0  0
  7  9  1  0  0  0
M  END
>  <i_m_Spin_multiplicity> (1)
1

>  <s_j_Task> (1)
Single Point

>  <s_j_QM_Method> (1)
DFT(b3lyp-d3)

>  <s_j_QM_Basis> (1)
cc-pvtz(-f)

>  <i_j_Number_of_canonical_orbitals> (1)
262

>  <i_j_Geometry_convergence_category> (1)
0

>  <r_j_Gas_Phase_Energy> (1)
-511.605518056042

>  <r_j_Final_Energy> (1)
-511.605518056042

>  <r_j_HOMO> (1)
-0.0494183127691104

>  <r_j_LUMO> (1)
0.0790010232029343

>  <r_j_Polarizability> (1)
96.2045606833581

>  <r_j_QM_Dipole_(debye)> (1)
4.69599330289282

>  <r_j_QM_Dipole_X_(debye)> (1)
-3.7693659372933

>  <r_j_QM_Dipole_Y_(debye)> (1)
2.78609685954349

>  <r_j_QM_Dipole_Z_(debye)> (1)
-0.286177953080096

>  <r_j_Lowest_Frequency_(cm-1)> (1)
63.2051180438243

>  <r_j_Highest_Frequency_(cm-1)> (1)
3160.5740673694

>  <r_j_2nd_Lowest_Frequency_(cm-1)> (1)
118.933332313916

>  <i_j_Num_Negative_Frequencies> (1)
0

>  <r_j_Zero_Point_Energy_(kcal/mol)> (1)
58.3742898680846

>  <r_j_Entropy_(cal/mol/K)_298.15K_1.00E+00atm> (1)
86.4734650081009

>  <r_j_Enthalpy_(kcal/mol)_298.15K_1.00E+00atm> (1)
5.31153284316679

>  <r_j_Free_Energy_(kcal/mol)_298.15K_1.00E+00atm> (1)
-20.4705307489985

>  <r_j_Internal_Energy_(kcal/mol)_298.15K_1.00E+00atm> (1)
4.71904725433952

>  <r_j_Heat_Capacity_(cal/mol/K)_298.15K_1.00E+00atm> (1)
28.7031206143244

>  <r_j_ln(Q)_298.15K_1.00E+00atm> (1)
34.5502593396684

>  <r_j_Total_Internal_Energy_(au)_298.15K_1.00E+00atm> (1)
-511.504972422648

>  <r_j_Total_Enthalpy_(au)_298.15K_1.00E+00atm> (1)
-511.504028236755

>  <r_j_Total_Free_Energy_(au)_298.15K_1.00E+00atm> (1)
-511.545114570627

>  <r_epik_Ionization_Penalty> (1)
  0.4052

>  <r_epik_Ionization_Penalty_Charging> (1)
  0.4052

>  <r_epik_Ionization_Penalty_Neutral> (1)
  0.0000

>  <r_epik_State_Penalty> (1)
  0.4049

>  <r_epik_Charging_Adjusted_Penalty> (1)
0.810133374249698

>  <i_epik_Tot_Q> (1)
-1

>  <i_epik_Tot_abs_Q> (1)
3

>  <s_lp_Force_Field> (1)
S-OPLS

>  <r_lp_Energy> (1)
16.246717

>  <b_lp_Chiralities_Consistent> (1)
1

$$$$
