69504_9-anthraldehyde
                    3D
 Schrodinger Suite 2021-3.
 26 28  0  0  1  0            999 V2000
   -2.1597   -3.6943   -0.0001 C   0  0  0  0  0  0
   -0.7406   -3.7219    0.0621 C   0  0  0  0  0  0
   -0.0058   -2.5642    0.0880 C   0  0  0  0  0  0
   -0.6301   -1.2742    0.0436 C   0  0  0  0  0  0
   -2.0741   -1.2626    0.0084 C   0  0  0  0  0  0
   -2.8053   -2.4900   -0.0204 C   0  0  0  0  0  0
   -2.7483   -0.0405    0.0116 C   0  0  0  0  0  0
   -2.0746    1.1817    0.0623 C   0  0  0  0  0  0
   -2.8097    2.4065    0.0785 C   0  0  0  0  0  0
   -2.1634    3.6105    0.1246 C   0  0  0  0  0  0
   -0.7437    3.6403    0.1549 C   0  0  0  0  0  0
   -0.0006    2.4861    0.1391 C   0  0  0  0  0  0
   -0.6308    1.2019    0.0931 C   0  0  0  0  0  0
    0.0814   -0.0354    0.0595 C   0  0  0  0  0  0
    1.5591   -0.0757   -0.0174 C   0  0  0  0  0  0
    2.3352    0.8546    0.1480 O   0  0  0  0  0  0
   -2.7199   -4.6238   -0.0202 H   0  0  0  0  0  0
   -0.2280   -4.6786    0.0990 H   0  0  0  0  0  0
    1.0700   -2.6484    0.1634 H   0  0  0  0  0  0
   -3.8903   -2.4402   -0.0526 H   0  0  0  0  0  0
   -3.8358   -0.0401   -0.0190 H   0  0  0  0  0  0
   -3.8949    2.3565    0.0529 H   0  0  0  0  0  0
   -2.7262    4.5390    0.1378 H   0  0  0  0  0  0
   -0.2339    4.5987    0.1924 H   0  0  0  0  0  0
    1.0773    2.5315    0.1717 H   0  0  0  0  0  0
    1.9806   -1.0633   -0.2794 H   0  0  0  0  0  0
  1  6  1  0  0  0
  1  2  2  0  0  0
  1 17  1  0  0  0
  2  3  1  0  0  0
  2 18  1  0  0  0
  3  4  2  0  0  0
  3 19  1  0  0  0
  4 14  1  0  0  0
  4  5  1  0  0  0
  5  6  2  0  0  0
  5  7  1  0  0  0
  6 20  1  0  0  0
  7  8  2  0  0  0
  7 21  1  0  0  0
  8 13  1  0  0  0
  8  9  1  0  0  0
  9 10  2  0  0  0
  9 22  1  0  0  0
 10 11  1  0  0  0
 10 23  1  0  0  0
 11 12  2  0  0  0
 11 24  1  0  0  0
 12 13  1  0  0  0
 12 25  1  0  0  0
 13 14  2  0  0  0
 14 15  1  0  0  0
 15 16  2  0  0  0
 15 26  1  0  0  0
M  END
>  <i_m_Spin_multiplicity> (1)
1

>  <s_j_Task> (1)
Single Point

>  <s_j_QM_Method> (1)
DFT(b3lyp-d3)

>  <s_j_QM_Basis> (1)
cc-pvtz(-f)

>  <i_j_Number_of_canonical_orbitals> (1)
445

>  <i_j_Geometry_convergence_category> (1)
3

>  <r_j_Gas_Phase_Energy> (1)
-653.063224876703

>  <r_j_Final_Energy> (1)
-653.063224876703

>  <r_j_HOMO> (1)
-0.216185018740142

>  <r_j_LUMO> (1)
-0.0991718379752804

>  <r_j_Polarizability> (1)
188.170766375806

>  <r_j_QM_Dipole_(debye)> (1)
3.62635049114333

>  <r_j_QM_Dipole_X_(debye)> (1)
-3.2867239943297

>  <r_j_QM_Dipole_Y_(debye)> (1)
-1.51453373052094

>  <r_j_QM_Dipole_Z_(debye)> (1)
-0.232488384284447

>  <r_j_Lowest_Frequency_(cm-1)> (1)
81.1134842268261

>  <r_j_Highest_Frequency_(cm-1)> (1)
3211.8364683278

>  <r_j_2nd_Lowest_Frequency_(cm-1)> (1)
122.878674710229

>  <i_j_Num_Negative_Frequencies> (1)
0

>  <r_j_Zero_Point_Energy_(kcal/mol)> (1)
127.111597907642

>  <r_j_Entropy_(cal/mol/K)_298.15K_1.00E+00atm> (1)
103.409871396064

>  <r_j_Enthalpy_(kcal/mol)_298.15K_1.00E+00atm> (1)
7.64537242613777

>  <r_j_Free_Energy_(kcal/mol)_298.15K_1.00E+00atm> (1)
-23.1862807305986

>  <r_j_Internal_Energy_(kcal/mol)_298.15K_1.00E+00atm> (1)
7.0528868373105

>  <r_j_Heat_Capacity_(cal/mol/K)_298.15K_1.00E+00atm> (1)
46.9759802434135

>  <r_j_ln(Q)_298.15K_1.00E+00atm> (1)
39.1339150990861

>  <r_j_Total_Internal_Energy_(au)_298.15K_1.00E+00atm> (1)
-652.849420159549

>  <r_j_Total_Enthalpy_(au)_298.15K_1.00E+00atm> (1)
-652.848475973657

>  <r_j_Total_Free_Energy_(au)_298.15K_1.00E+00atm> (1)
-652.89760934077

>  <r_lp_tautomer_probability> (1)
1

>  <r_epik_Ionization_Penalty> (1)
  0.0000

>  <r_epik_Ionization_Penalty_Charging> (1)
  0.0000

>  <r_epik_Ionization_Penalty_Neutral> (1)
  0.0000

>  <r_epik_State_Penalty> (1)
  0.0000

>  <r_epik_Charging_Adjusted_Penalty> (1)
0

>  <i_epik_Tot_Q> (1)
0

>  <i_epik_Tot_abs_Q> (1)
0

>  <s_lp_Force_Field> (1)
S-OPLS

>  <r_lp_Energy> (1)
37.856

>  <b_lp_Chiralities_Consistent> (1)
1

$$$$
