69655_cis-2-methyl-3-heptene
                    3D
 Schrodinger Suite 2021-3.
 24 23  0  0  1  0            999 V2000
   -2.1921    1.4367    0.1927 C   0  0  0  0  0  0
   -0.6612    1.4496    0.1982 C   0  0  0  0  0  0
   -0.0508    0.1050   -0.2411 C   0  0  0  0  0  0
    1.4517    0.1080   -0.1898 C   0  0  0  0  0  0
    2.2639   -0.0322   -1.2391 C   0  0  0  0  0  0
    3.7707    0.0046   -1.1985 C   0  0  0  0  0  0
    4.3058    1.1769   -2.0414 C   0  0  0  0  0  0
    4.3634   -1.3298   -1.6865 C   0  0  0  0  0  0
   -2.6031    2.4024    0.5045 H   0  0  0  0  0  0
   -2.5826    0.6717    0.8738 H   0  0  0  0  0  0
   -2.5809    1.2161   -0.8081 H   0  0  0  0  0  0
   -0.2894    2.2400   -0.4658 H   0  0  0  0  0  0
   -0.2962    1.6995    1.2035 H   0  0  0  0  0  0
   -0.4430   -0.6869    0.4149 H   0  0  0  0  0  0
   -0.3916   -0.1365   -1.2564 H   0  0  0  0  0  0
    1.8925    0.2643    0.7973 H   0  0  0  0  0  0
    1.8272   -0.1842   -2.2296 H   0  0  0  0  0  0
    4.0836    0.1596   -0.1567 H   0  0  0  0  0  0
    3.9178    2.1334   -1.6784 H   0  0  0  0  0  0
    4.0039    1.0691   -3.0903 H   0  0  0  0  0  0
    5.4004    1.2154   -2.0126 H   0  0  0  0  0  0
    4.0183   -2.1646   -1.0692 H   0  0  0  0  0  0
    5.4585   -1.3085   -1.6565 H   0  0  0  0  0  0
    4.0626   -1.5315   -2.7218 H   0  0  0  0  0  0
  1  2  1  0  0  0
  1  9  1  0  0  0
  1 10  1  0  0  0
  1 11  1  0  0  0
  2  3  1  0  0  0
  2 12  1  0  0  0
  2 13  1  0  0  0
  3  4  1  0  0  0
  3 14  1  0  0  0
  3 15  1  0  0  0
  4  5  2  3  0  0
  4 16  1  0  0  0
  5  6  1  0  0  0
  5 17  1  0  0  0
  6  7  1  0  0  0
  6  8  1  0  0  0
  6 18  1  0  0  0
  7 19  1  0  0  0
  7 20  1  0  0  0
  7 21  1  0  0  0
  8 22  1  0  0  0
  8 23  1  0  0  0
  8 24  1  0  0  0
M  END
> <i_m_Spin_multiplicity>
1

> <s_j_Task>
Single Point

> <s_j_QM_Method>
DFT(b3lyp-d3)

> <s_j_QM_Basis>
cc-pvtz(-f)

> <i_j_Number_of_canonical_orbitals>
325

> <i_j_Geometry_convergence_category>
0

> <r_j_Gas_Phase_Energy>
-314.608469431394

> <r_j_Final_Energy>
-314.608469431394

> <r_j_HOMO>
-0.239779870047529

> <r_j_LUMO>
0.0207898205271026

> <r_j_Polarizability>
101.499197886924

> <r_j_QM_Dipole_(debye)>
0.136339205029449

> <r_j_QM_Dipole_X_(debye)>
-0.00516914997767608

> <r_j_QM_Dipole_Y_(debye)>
0.0862444766199769

> <r_j_QM_Dipole_Z_(debye)>
0.105468236778267

> <r_j_Lowest_Frequency_(cm-1)>
75.9932666358001

> <r_j_Highest_Frequency_(cm-1)>
3065.4770523987

> <r_j_2nd_Lowest_Frequency_(cm-1)>
105.948151770864

> <i_j_Num_Negative_Frequencies>
0

> <r_j_Zero_Point_Energy_(kcal/mol)>
138.89140475907

> <r_j_Entropy_(cal/mol/K)_298.15K_1.00E+00atm>
95.5710649709798

> <r_j_Enthalpy_(kcal/mol)_298.15K_1.00E+00atm>
6.84646168091492

> <r_j_Free_Energy_(kcal/mol)_298.15K_1.00E+00atm>
-21.6480513401827

> <r_j_Internal_Energy_(kcal/mol)_298.15K_1.00E+00atm>
6.25397609208765

> <r_j_Heat_Capacity_(cal/mol/K)_298.15K_1.00E+00atm>
37.321256690974

> <r_j_ln(Q)_298.15K_1.00E+00atm>
36.537684204322

> <r_j_Total_Internal_Energy_(au)_298.15K_1.00E+00atm>
-314.377165542305

> <r_j_Total_Enthalpy_(au)_298.15K_1.00E+00atm>
-314.376221356413

> <r_j_Total_Free_Energy_(au)_298.15K_1.00E+00atm>
-314.421630253622

> <r_lp_tautomer_probability>
1

> <r_epik_Ionization_Penalty>
  0.0000

> <r_epik_Ionization_Penalty_Charging>
  0.0000

> <r_epik_Ionization_Penalty_Neutral>
  0.0000

> <r_epik_State_Penalty>
  0.0000

> <r_epik_Charging_Adjusted_Penalty>
0

> <i_epik_Tot_Q>
0

> <i_epik_Tot_abs_Q>
0

> <s_lp_Force_Field>
S-OPLS

> <r_lp_Energy>
-1.329407

> <b_lp_Chiralities_Consistent>
1

$$$$
