6997_2-Ethylphenol
                    3D
 Schrodinger Suite 2021-3.
 19 19  0  0  1  0            999 V2000
   -0.5539    1.4233    0.1809 C   0  0  0  0  0  0
    0.0043    0.0110   -0.0679 C   0  0  0  0  0  0
    1.5150   -0.0249   -0.0466 C   0  0  0  0  0  0
    2.2720   -0.1049   -1.2170 C   0  0  0  0  0  0
    3.6689   -0.1076   -1.1954 C   0  0  0  0  0  0
    4.3345   -0.0294    0.0254 C   0  0  0  0  0  0
    3.6048    0.0525    1.2122 C   0  0  0  0  0  0
    2.2093    0.0567    1.1745 C   0  0  0  0  0  0
    1.4500    0.1390    2.3154 O   0  0  0  0  0  0
   -1.6488    1.4221    0.1611 H   0  0  0  0  0  0
   -0.1986    2.1218   -0.5836 H   0  0  0  0  0  0
   -0.2294    1.7926    1.1574 H   0  0  0  0  0  0
   -0.3859   -0.6663    0.7000 H   0  0  0  0  0  0
   -0.3500   -0.3624   -1.0354 H   0  0  0  0  0  0
    1.7488   -0.1681   -2.1683 H   0  0  0  0  0  0
    4.2288   -0.1729   -2.1230 H   0  0  0  0  0  0
    5.4200   -0.0321    0.0624 H   0  0  0  0  0  0
    4.1175    0.1131    2.1703 H   0  0  0  0  0  0
    2.0362    0.1765    3.0818 H   0  0  0  0  0  0
  1  2  1  0  0  0
  1 10  1  0  0  0
  1 11  1  0  0  0
  1 12  1  0  0  0
  2  3  1  0  0  0
  2 13  1  0  0  0
  2 14  1  0  0  0
  3  8  1  0  0  0
  3  4  2  0  0  0
  4  5  1  0  0  0
  4 15  1  0  0  0
  5  6  2  0  0  0
  5 16  1  0  0  0
  6  7  1  0  0  0
  6 17  1  0  0  0
  7  8  2  0  0  0
  7 18  1  0  0  0
  8  9  1  0  0  0
  9 19  1  0  0  0
M  END
>  <i_m_Spin_multiplicity> (1)
1

>  <s_j_Task> (1)
Single Point

>  <s_j_QM_Method> (1)
DFT(b3lyp-d3)

>  <s_j_QM_Basis> (1)
cc-pvtz(-f)

>  <i_j_Number_of_canonical_orbitals> (1)
292

>  <i_j_Geometry_convergence_category> (1)
0

>  <r_j_Gas_Phase_Energy> (1)
-386.24410596454

>  <r_j_Final_Energy> (1)
-386.24410596454

>  <r_j_HOMO> (1)
-0.226076928841718

>  <r_j_LUMO> (1)
-0.0108838816309313

>  <r_j_Polarizability> (1)
94.0385054333146

>  <r_j_QM_Dipole_(debye)> (1)
1.14215133324567

>  <r_j_QM_Dipole_X_(debye)> (1)
0.737130008817685

>  <r_j_QM_Dipole_Y_(debye)> (1)
0.0320981455448885

>  <r_j_QM_Dipole_Z_(debye)> (1)
0.871847880761244

>  <r_j_Lowest_Frequency_(cm-1)> (1)
113.68631169095

>  <r_j_Highest_Frequency_(cm-1)> (1)
3776.562957748

>  <r_j_2nd_Lowest_Frequency_(cm-1)> (1)
146.06970025689

>  <i_j_Num_Negative_Frequencies> (1)
0

>  <r_j_Zero_Point_Energy_(kcal/mol)> (1)
100.814238775926

>  <r_j_Entropy_(cal/mol/K)_298.15K_1.00E+00atm> (1)
86.8964156815776

>  <r_j_Enthalpy_(kcal/mol)_298.15K_1.00E+00atm> (1)
5.63932470597566

>  <r_j_Free_Energy_(kcal/mol)_298.15K_1.00E+00atm> (1)
-20.2688416294867

>  <r_j_Internal_Energy_(kcal/mol)_298.15K_1.00E+00atm> (1)
5.04683911714839

>  <r_j_Heat_Capacity_(cal/mol/K)_298.15K_1.00E+00atm> (1)
31.9417256735257

>  <r_j_ln(Q)_298.15K_1.00E+00atm> (1)
34.2098474827134

>  <r_j_Total_Internal_Energy_(au)_298.15K_1.00E+00atm> (1)
-386.075405597527

>  <r_j_Total_Enthalpy_(au)_298.15K_1.00E+00atm> (1)
-386.074461411634

>  <r_j_Total_Free_Energy_(au)_298.15K_1.00E+00atm> (1)
-386.115748703021

>  <r_lp_tautomer_probability> (1)
0.999999999997365

>  <r_epik_Ionization_Penalty> (1)
  0.0004

>  <r_epik_Ionization_Penalty_Charging> (1)
  0.0000

>  <r_epik_Ionization_Penalty_Neutral> (1)
  0.0004

>  <r_epik_State_Penalty> (1)
  0.0002

>  <r_epik_Charging_Adjusted_Penalty> (1)
0.000238426402222677

>  <i_epik_Tot_Q> (1)
0

>  <i_epik_Tot_abs_Q> (1)
0

>  <s_lp_Force_Field> (1)
S-OPLS

>  <r_lp_Energy> (1)
9.493444

>  <b_lp_Chiralities_Consistent> (1)
1

$$$$
