7000_O-Anisidine
                    3D
 Schrodinger Suite 2021-3.
 18 18  0  0  1  0            999 V2000
   -0.6896    1.1817    0.0000 C   0  0  0  0  0  0
    0.0466   -0.0282    0.0000 O   0  0  0  0  0  0
    1.4220    0.0526    0.0000 C   0  0  0  0  0  0
    2.1578    1.2320    0.0000 C   0  0  0  0  0  0
    3.5590    1.1896    0.0000 C   0  0  0  0  0  0
    4.2084   -0.0393    0.0000 C   0  0  0  0  0  0
    3.4723   -1.2266    0.0000 C   0  0  0  0  0  0
    2.0730   -1.2068    0.0000 C   0  0  0  0  0  0
    1.3126   -2.3536    0.0000 N   0  0  0  0  0  0
   -1.7437    0.8983    0.0000 H   0  0  0  0  0  0
   -0.4781    1.7847   -0.8934 H   0  0  0  0  0  0
   -0.4781    1.7848    0.8934 H   0  0  0  0  0  0
    1.6511    2.1900    0.0000 H   0  0  0  0  0  0
    4.1244    2.1159    0.0000 H   0  0  0  0  0  0
    5.2934   -0.0854    0.0000 H   0  0  0  0  0  0
    3.9823   -2.1869    0.0000 H   0  0  0  0  0  0
    1.7456   -3.2589    0.0000 H   0  0  0  0  0  0
    0.3110   -2.2851    0.0000 H   0  0  0  0  0  0
  1  2  1  0  0  0
  1 10  1  0  0  0
  1 11  1  0  0  0
  1 12  1  0  0  0
  2  3  1  0  0  0
  3  8  1  0  0  0
  3  4  2  0  0  0
  4  5  1  0  0  0
  4 13  1  0  0  0
  5  6  2  0  0  0
  5 14  1  0  0  0
  6  7  1  0  0  0
  6 15  1  0  0  0
  7  8  2  0  0  0
  7 16  1  0  0  0
  8  9  1  0  0  0
  9 17  1  0  0  0
  9 18  1  0  0  0
M  END
>  <i_m_Spin_multiplicity> (1)
1

>  <s_j_Task> (1)
Single Point

>  <s_j_QM_Method> (1)
DFT(b3lyp-d3)

>  <s_j_QM_Basis> (1)
cc-pvtz(-f)

>  <i_j_Number_of_canonical_orbitals> (1)
283

>  <i_j_Geometry_convergence_category> (1)
0

>  <r_j_Gas_Phase_Energy> (1)
-402.273393734494

>  <r_j_Final_Energy> (1)
-402.273393734494

>  <r_j_HOMO> (1)
-0.189999207560837

>  <r_j_LUMO> (1)
0.00657487590295732

>  <r_j_Polarizability> (1)
92.1433934874654

>  <r_j_QM_Dipole_(debye)> (1)
1.66268873662468

>  <r_j_QM_Dipole_X_(debye)> (1)
-1.59443713246867

>  <r_j_QM_Dipole_Y_(debye)> (1)
-0.471491320164274

>  <r_j_QM_Dipole_Z_(debye)> (1)
-2.26584095093375e-05

>  <r_j_Lowest_Frequency_(cm-1)> (1)
-431.942789073882

>  <r_j_Highest_Frequency_(cm-1)> (1)
3722.96146528833

>  <r_j_2nd_Lowest_Frequency_(cm-1)> (1)
101.018732563136

>  <i_j_Num_Negative_Frequencies> (1)
1

>  <r_j_Zero_Point_Energy_(kcal/mol)> (1)
93.0358246083165

>  <r_j_Entropy_(cal/mol/K)_298.15K_1.00E+00atm> (1)
85.9185785381497

>  <r_j_Enthalpy_(kcal/mol)_298.15K_1.00E+00atm> (1)
5.47105649875072

>  <r_j_Free_Energy_(kcal/mol)_298.15K_1.00E+00atm> (1)
-20.1455676923986

>  <r_j_Internal_Energy_(kcal/mol)_298.15K_1.00E+00atm> (1)
4.87857090992344

>  <r_j_Heat_Capacity_(cal/mol/K)_298.15K_1.00E+00atm> (1)
30.6191187337661

>  <r_j_ln(Q)_298.15K_1.00E+00atm> (1)
34.0017851442992

>  <r_j_Total_Internal_Energy_(au)_298.15K_1.00E+00atm> (1)
-402.11735721202

>  <r_j_Total_Enthalpy_(au)_298.15K_1.00E+00atm> (1)
-402.116413026128

>  <r_j_Total_Free_Energy_(au)_298.15K_1.00E+00atm> (1)
-402.157235715531

>  <r_epik_Ionization_Penalty> (1)
  0.0022

>  <r_epik_Ionization_Penalty_Charging> (1)
  0.0000

>  <r_epik_Ionization_Penalty_Neutral> (1)
  0.0022

>  <r_epik_State_Penalty> (1)
  0.0015

>  <r_epik_Charging_Adjusted_Penalty> (1)
0.0015212

>  <i_epik_Tot_Q> (1)
0

>  <i_epik_Tot_abs_Q> (1)
0

>  <s_lp_Force_Field> (1)
S-OPLS

>  <r_lp_Energy> (1)
15.029

>  <b_lp_Chiralities_Consistent> (1)
1

$$$$
