70095_Octadecanedioic acid
                    3D
 Schrodinger Suite 2021-3.
 54 53  0  0  1  0            999 V2000
    0.0179    0.1836   -0.1850 C   0  0  0  0  0  0
    1.5510    0.1566   -0.1479 C   0  0  0  0  0  0
    2.1361   -1.2608   -0.1484 C   0  0  0  0  0  0
    3.6687   -1.3041   -0.1107 C   0  0  0  0  0  0
    4.2361   -2.7284   -0.0708 C   0  0  0  0  0  0
    5.7680   -2.7937   -0.0418 C   0  0  0  0  0  0
    6.3148   -4.2258    0.0398 C   0  0  0  0  0  0
    7.8472   -4.3257    0.0810 C   0  0  0  0  0  0
    8.5746   -3.8480   -1.1778 C   0  0  0  0  0  0
   10.0829   -4.3206   -1.2625 C   0  0  0  0  0  0
   10.8231   -3.5928   -1.9674 O   0  0  0  0  0  0
   10.3543   -5.3850   -0.6470 O   0  5  0  0  0  0
   -0.5785    1.5957   -0.1481 C   0  0  0  0  0  0
   -2.1119    1.6165   -0.1787 C   0  0  0  0  0  0
   -2.7114    3.0262   -0.1101 C   0  0  0  0  0  0
   -4.2449    3.0512   -0.1304 C   0  0  0  0  0  0
   -4.8431    4.4613   -0.0384 C   0  0  0  0  0  0
   -6.3765    4.4882   -0.0377 C   0  0  0  0  0  0
   -6.9868    5.8857    0.0738 C   0  0  0  0  0  0
   -8.5490    5.8907    0.3065 C   0  0  0  0  0  0
   -9.1345    6.9373   -0.0649 O   0  0  0  0  0  0
   -9.0162    4.8642    0.8662 O   0  5  0  0  0  0
   -0.3322   -0.3356   -1.0891 H   0  0  0  0  0  0
   -0.3741   -0.3954    0.6640 H   0  0  0  0  0  0
    1.9464    0.7156   -1.0084 H   0  0  0  0  0  0
    1.9017    0.6929    0.7460 H   0  0  0  0  0  0
    1.7378   -1.8141    0.7149 H   0  0  0  0  0  0
    1.7805   -1.7994   -1.0390 H   0  0  0  0  0  0
    4.0705   -0.7751   -0.9869 H   0  0  0  0  0  0
    4.0265   -0.7464    0.7672 H   0  0  0  0  0  0
    3.8327   -3.2497    0.8106 H   0  0  0  0  0  0
    3.8672   -3.2882   -0.9432 H   0  0  0  0  0  0
    6.1726   -2.2997   -0.9345 H   0  0  0  0  0  0
    6.1413   -2.2165    0.8176 H   0  0  0  0  0  0
    5.8831   -4.7115    0.9304 H   0  0  0  0  0  0
    5.9410   -4.7951   -0.8257 H   0  0  0  0  0  0
    8.2198   -3.7694    0.9552 H   0  0  0  0  0  0
    8.1579   -5.3645    0.2382 H   0  0  0  0  0  0
    8.0611   -4.2553   -2.0653 H   0  0  0  0  0  0
    8.5495   -2.7568   -1.2857 H   0  0  0  0  0  0
   -0.2275    2.1126    0.7570 H   0  0  0  0  0  0
   -0.1895    2.1779   -0.9962 H   0  0  0  0  0  0
   -2.4637    1.1149   -1.0921 H   0  0  0  0  0  0
   -2.4983    1.0184    0.6596 H   0  0  0  0  0  0
   -2.3538    3.5253    0.8027 H   0  0  0  0  0  0
   -2.3265    3.6252   -0.9488 H   0  0  0  0  0  0
   -4.6035    2.5628   -1.0486 H   0  0  0  0  0  0
   -4.6290    2.4428    0.7014 H   0  0  0  0  0  0
   -4.4718    4.9476    0.8770 H   0  0  0  0  0  0
   -4.4593    5.0687   -0.8730 H   0  0  0  0  0  0
   -6.7470    4.0003   -0.9519 H   0  0  0  0  0  0
   -6.7767    3.8934    0.7919 H   0  0  0  0  0  0
   -6.5292    6.4112    0.9288 H   0  0  0  0  0  0
   -6.7594    6.4945   -0.8115 H   0  0  0  0  0  0
  1  2  1  0  0  0
  1 13  1  0  0  0
  1 23  1  0  0  0
  1 24  1  0  0  0
  2  3  1  0  0  0
  2 25  1  0  0  0
  2 26  1  0  0  0
  3  4  1  0  0  0
  3 27  1  0  0  0
  3 28  1  0  0  0
  4  5  1  0  0  0
  4 29  1  0  0  0
  4 30  1  0  0  0
  5  6  1  0  0  0
  5 31  1  0  0  0
  5 32  1  0  0  0
  6  7  1  0  0  0
  6 33  1  0  0  0
  6 34  1  0  0  0
  7  8  1  0  0  0
  7 35  1  0  0  0
  7 36  1  0  0  0
  8  9  1  0  0  0
  8 37  1  0  0  0
  8 38  1  0  0  0
  9 10  1  0  0  0
  9 39  1  0  0  0
  9 40  1  0  0  0
 10 11  2  0  0  0
 10 12  1  0  0  0
 13 14  1  0  0  0
 13 41  1  0  0  0
 13 42  1  0  0  0
 14 15  1  0  0  0
 14 43  1  0  0  0
 14 44  1  0  0  0
 15 16  1  0  0  0
 15 45  1  0  0  0
 15 46  1  0  0  0
 16 17  1  0  0  0
 16 47  1  0  0  0
 16 48  1  0  0  0
 17 18  1  0  0  0
 17 49  1  0  0  0
 17 50  1  0  0  0
 18 19  1  0  0  0
 18 51  1  0  0  0
 18 52  1  0  0  0
 19 20  1  0  0  0
 19 53  1  0  0  0
 19 54  1  0  0  0
 20 21  2  0  0  0
 20 22  1  0  0  0
M  END
>  <i_m_Spin_multiplicity> (1)
1

>  <s_j_Task> (1)
Single Point

>  <s_j_QM_Method> (1)
DFT(b3lyp-d3)

>  <s_j_QM_Basis> (1)
cc-pvtz(-f)

>  <i_j_Number_of_canonical_orbitals> (1)
788

>  <i_j_Geometry_convergence_category> (1)
3

>  <r_j_Gas_Phase_Energy> (1)
-1006.59533454477

>  <r_j_Final_Energy> (1)
-1006.59533454477

>  <r_j_HOMO> (1)
0.0284845580817316

>  <r_j_LUMO> (1)
0.137531795560632

>  <r_j_Polarizability> (1)
244.66110686866

>  <r_j_QM_Dipole_(debye)> (1)
3.2960414070141

>  <r_j_QM_Dipole_X_(debye)> (1)
0.259045137707864

>  <r_j_QM_Dipole_Y_(debye)> (1)
-2.77502749376375

>  <r_j_QM_Dipole_Z_(debye)> (1)
1.75954737993515

>  <r_j_Lowest_Frequency_(cm-1)> (1)
13.2216009088494

>  <r_j_Highest_Frequency_(cm-1)> (1)
3023.5567219365

>  <r_j_2nd_Lowest_Frequency_(cm-1)> (1)
28.8871942537053

>  <i_j_Num_Negative_Frequencies> (1)
0

>  <r_j_Zero_Point_Energy_(kcal/mol)> (1)
298.88495149582

>  <r_j_Entropy_(cal/mol/K)_298.15K_1.00E+00atm> (1)
166.192377164877

>  <r_j_Enthalpy_(kcal/mol)_298.15K_1.00E+00atm> (1)
16.0627227806567

>  <r_j_Free_Energy_(kcal/mol)_298.15K_1.00E+00atm> (1)
-33.4875344710515

>  <r_j_Internal_Energy_(kcal/mol)_298.15K_1.00E+00atm> (1)
15.4702371918294

>  <r_j_Heat_Capacity_(cal/mol/K)_298.15K_1.00E+00atm> (1)
92.1667106095072

>  <r_j_ln(Q)_298.15K_1.00E+00atm> (1)
56.5204202474095

>  <r_j_Total_Internal_Energy_(au)_298.15K_1.00E+00atm> (1)
-1006.0943776609

>  <r_j_Total_Enthalpy_(au)_298.15K_1.00E+00atm> (1)
-1006.09343347501

>  <r_j_Total_Free_Energy_(au)_298.15K_1.00E+00atm> (1)
-1006.17239683671

>  <r_epik_Ionization_Penalty> (1)
  0.0097

>  <r_epik_Ionization_Penalty_Charging> (1)
  0.0097

>  <r_epik_Ionization_Penalty_Neutral> (1)
  0.0000

>  <r_epik_State_Penalty> (1)
  0.0074

>  <r_epik_Charging_Adjusted_Penalty> (1)
0.0170681

>  <i_epik_Tot_Q> (1)
-2

>  <i_epik_Tot_abs_Q> (1)
2

>  <s_lp_Force_Field> (1)
S-OPLS

>  <r_lp_Energy> (1)
15.1991

>  <b_lp_Chiralities_Consistent> (1)
1

$$$$
