7020_Xanthone
                    3D
 Schrodinger Suite 2021-3.
 23 25  0  0  1  0            999 V2000
   -0.0369    1.0894   -0.2311 C   0  0  0  0  0  0
    1.1587    1.8260   -0.2333 C   0  0  0  0  0  0
    1.1528    3.1913    0.0167 C   0  0  0  0  0  0
   -0.0648    3.8284    0.2724 C   0  0  0  0  0  0
   -1.2718    3.1121    0.2795 C   0  0  0  0  0  0
   -1.2377    1.7316    0.0234 C   0  0  0  0  0  0
   -2.5505    3.7984    0.5511 C   0  0  0  0  0  0
   -3.6318    3.2145    0.5665 O   0  0  0  0  0  0
   -2.4176    5.2471    0.8028 C   0  0  0  0  0  0
   -3.5471    6.0348    1.0785 C   0  0  0  0  0  0
   -3.4205    7.3939    1.3144 C   0  0  0  0  0  0
   -2.1499    7.9907    1.2774 C   0  0  0  0  0  0
   -1.0174    7.2350    1.0071 C   0  0  0  0  0  0
   -1.1574    5.8644    0.7711 C   0  0  0  0  0  0
   -0.0047    5.1744    0.5114 O   0  0  0  0  0  0
   -0.0181    0.0224   -0.4282 H   0  0  0  0  0  0
    2.1021    1.3263   -0.4324 H   0  0  0  0  0  0
    2.0639    3.7793    0.0199 H   0  0  0  0  0  0
   -2.1835    1.1999    0.0345 H   0  0  0  0  0  0
   -4.5099    5.5346    1.0975 H   0  0  0  0  0  0
   -4.2978    7.9964    1.5271 H   0  0  0  0  0  0
   -2.0463    9.0559    1.4618 H   0  0  0  0  0  0
   -0.0269    7.6750    0.9736 H   0  0  0  0  0  0
  1  6  1  0  0  0
  1  2  2  0  0  0
  1 16  1  0  0  0
  2  3  1  0  0  0
  2 17  1  0  0  0
  3  4  2  0  0  0
  3 18  1  0  0  0
  4 15  1  0  0  0
  4  5  1  0  0  0
  5  6  2  0  0  0
  5  7  1  0  0  0
  6 19  1  0  0  0
  7  8  2  0  0  0
  7  9  1  0  0  0
  9 14  1  0  0  0
  9 10  2  0  0  0
 10 11  1  0  0  0
 10 20  1  0  0  0
 11 12  2  0  0  0
 11 21  1  0  0  0
 12 13  1  0  0  0
 12 22  1  0  0  0
 13 14  2  0  0  0
 13 23  1  0  0  0
 14 15  1  0  0  0
M  END
>  <i_m_Spin_multiplicity> (1)
1

>  <s_j_Task> (1)
Single Point

>  <s_j_QM_Method> (1)
DFT(b3lyp-d3)

>  <s_j_QM_Basis> (1)
cc-pvtz(-f)

>  <i_j_Number_of_canonical_orbitals> (1)
407

>  <i_j_Geometry_convergence_category> (1)
0

>  <r_j_Gas_Phase_Energy> (1)
-650.884185809644

>  <r_j_Final_Energy> (1)
-650.884185809644

>  <r_j_HOMO> (1)
-0.217635477195028

>  <r_j_LUMO> (1)
-0.057113721259923

>  <r_j_Polarizability> (1)
153.025502946051

>  <r_j_QM_Dipole_(debye)> (1)
3.04436702361131

>  <r_j_QM_Dipole_X_(debye)> (1)
2.67915751920438

>  <r_j_QM_Dipole_Y_(debye)> (1)
1.44534380610478

>  <r_j_QM_Dipole_Z_(debye)> (1)
-0.0355927506266705

>  <r_j_Lowest_Frequency_(cm-1)> (1)
80.4236372137294

>  <r_j_Highest_Frequency_(cm-1)> (1)
3162.31107135416

>  <r_j_2nd_Lowest_Frequency_(cm-1)> (1)
138.120749544449

>  <i_j_Num_Negative_Frequencies> (1)
0

>  <r_j_Zero_Point_Energy_(kcal/mol)> (1)
109.018419129388

>  <r_j_Entropy_(cal/mol/K)_298.15K_1.00E+00atm> (1)
97.6726901650964

>  <r_j_Enthalpy_(kcal/mol)_298.15K_1.00E+00atm> (1)
6.85294135857593

>  <r_j_Free_Energy_(kcal/mol)_298.15K_1.00E+00atm> (1)
-22.2681712141476

>  <r_j_Internal_Energy_(kcal/mol)_298.15K_1.00E+00atm> (1)
6.26045576974865

>  <r_j_Heat_Capacity_(cal/mol/K)_298.15K_1.00E+00atm> (1)
42.080688814504

>  <r_j_ln(Q)_298.15K_1.00E+00atm> (1)
37.5843254824538

>  <r_j_Total_Internal_Energy_(au)_298.15K_1.00E+00atm> (1)
-650.700477227686

>  <r_j_Total_Enthalpy_(au)_298.15K_1.00E+00atm> (1)
-650.699533041793

>  <r_j_Total_Free_Energy_(au)_298.15K_1.00E+00atm> (1)
-650.745940488956

>  <r_lp_tautomer_probability> (1)
1

>  <r_epik_Ionization_Penalty> (1)
  0.0000

>  <r_epik_Ionization_Penalty_Charging> (1)
  0.0000

>  <r_epik_Ionization_Penalty_Neutral> (1)
  0.0000

>  <r_epik_State_Penalty> (1)
  0.0000

>  <r_epik_Charging_Adjusted_Penalty> (1)
0

>  <i_epik_Tot_Q> (1)
0

>  <i_epik_Tot_abs_Q> (1)
0

>  <s_lp_Force_Field> (1)
S-OPLS

>  <r_lp_Energy> (1)
16.526484

>  <b_lp_Chiralities_Consistent> (1)
1

$$$$
