70255_1-Methylpyrazole
                    3D
 Schrodinger Suite 2021-3.
 12 12  0  0  1  0            999 V2000
    0.0017   -0.0128    0.0000 C   0  0  0  0  0  0
    1.4499    0.0423    0.0000 N   0  0  0  0  0  0
    2.2472    1.1435    0.0000 C   0  0  0  0  0  0
    3.5528    0.6913    0.0000 C   0  0  0  0  0  0
    3.4335   -0.7148    0.0000 C   0  0  0  0  0  0
    2.1590   -1.1075    0.0000 N   0  0  0  0  0  0
   -0.3930    1.0049    0.0000 H   0  0  0  0  0  0
   -0.3547   -0.5390    0.8895 H   0  0  0  0  0  0
   -0.3547   -0.5390   -0.8895 H   0  0  0  0  0  0
    1.8303    2.1402    0.0000 H   0  0  0  0  0  0
    4.4526    1.2874    0.0000 H   0  0  0  0  0  0
    4.2211   -1.4563    0.0000 H   0  0  0  0  0  0
  1  2  1  0  0  0
  1  7  1  0  0  0
  1  8  1  0  0  0
  1  9  1  0  0  0
  2  6  1  0  0  0
  2  3  1  0  0  0
  3  4  2  0  0  0
  3 10  1  0  0  0
  4  5  1  0  0  0
  4 11  1  0  0  0
  5  6  2  0  0  0
  5 12  1  0  0  0
M  END
>  <i_m_Spin_multiplicity> (1)
1

>  <s_j_Task> (1)
Single Point

>  <s_j_QM_Method> (1)
DFT(b3lyp-d3)

>  <s_j_QM_Basis> (1)
cc-pvtz(-f)

>  <i_j_Number_of_canonical_orbitals> (1)
191

>  <i_j_Geometry_convergence_category> (1)
0

>  <r_j_Gas_Phase_Energy> (1)
-265.605387096527

>  <r_j_Final_Energy> (1)
-265.605387096527

>  <r_j_HOMO> (1)
-0.245797608888338

>  <r_j_LUMO> (1)
0.00909260530423894

>  <r_j_Polarizability> (1)
57.006034229495

>  <r_j_QM_Dipole_(debye)> (1)
2.3494384370239

>  <r_j_QM_Dipole_X_(debye)> (1)
-1.25617041407862

>  <r_j_QM_Dipole_Y_(debye)> (1)
1.98542107880367

>  <r_j_QM_Dipole_Z_(debye)> (1)
9.68906812861219e-07

>  <r_j_Lowest_Frequency_(cm-1)> (1)
172.527254367434

>  <r_j_Highest_Frequency_(cm-1)> (1)
3223.68136812545

>  <r_j_2nd_Lowest_Frequency_(cm-1)> (1)
238.445469756676

>  <i_j_Num_Negative_Frequencies> (1)
0

>  <r_j_Zero_Point_Energy_(kcal/mol)> (1)
61.7784192652354

>  <r_j_Entropy_(cal/mol/K)_298.15K_1.00E+00atm> (1)
72.2949924619376

>  <r_j_Enthalpy_(kcal/mol)_298.15K_1.00E+00atm> (1)
3.79855774788558

>  <r_j_Free_Energy_(kcal/mol)_298.15K_1.00E+00atm> (1)
-17.7561942546411

>  <r_j_Internal_Energy_(kcal/mol)_298.15K_1.00E+00atm> (1)
3.20607215905831

>  <r_j_Heat_Capacity_(cal/mol/K)_298.15K_1.00E+00atm> (1)
18.502764788362

>  <r_j_ln(Q)_298.15K_1.00E+00atm> (1)
29.9689892707542

>  <r_j_Total_Internal_Energy_(au)_298.15K_1.00E+00atm> (1)
-265.501827716899

>  <r_j_Total_Enthalpy_(au)_298.15K_1.00E+00atm> (1)
-265.500883531007

>  <r_j_Total_Free_Energy_(au)_298.15K_1.00E+00atm> (1)
-265.535233215008

>  <r_lp_tautomer_probability> (1)
1

>  <r_epik_Ionization_Penalty> (1)
  0.0002

>  <r_epik_Ionization_Penalty_Charging> (1)
  0.0000

>  <r_epik_Ionization_Penalty_Neutral> (1)
  0.0002

>  <r_epik_State_Penalty> (1)
  0.0000

>  <r_epik_Charging_Adjusted_Penalty> (1)
0

>  <i_epik_Tot_Q> (1)
0

>  <i_epik_Tot_abs_Q> (1)
0

>  <s_lp_Force_Field> (1)
S-OPLS

>  <r_lp_Energy> (1)
2.49807

>  <b_lp_Chiralities_Consistent> (1)
1

$$$$
