7041_Syringol
                    3D
 Schrodinger Suite 2021-3.
 21 21  0  0  1  0            999 V2000
   -0.7107    1.1569    0.0001 C   0  0  0  0  0  0
    0.0605   -0.0320    0.0000 O   0  0  0  0  0  0
    1.4195    0.0900    0.0000 C   0  0  0  0  0  0
    2.1289   -1.1213    0.0000 C   0  0  0  0  0  0
    3.5316   -1.1001    0.0000 C   0  0  0  0  0  0
    4.2355    0.1056    0.0000 C   0  0  0  0  0  0
    3.5171    1.3005    0.0000 C   0  0  0  0  0  0
    2.1223    1.3017    0.0000 C   0  0  0  0  0  0
    4.0920   -2.3586    0.0000 O   0  0  0  0  0  0
    5.5072   -2.4600    0.0001 C   0  0  0  0  0  0
    1.4451   -2.3002   -0.0001 O   0  0  0  0  0  0
   -1.7542    0.8379    0.0001 H   0  0  0  0  0  0
   -0.5206    1.7669   -0.8936 H   0  0  0  0  0  0
   -0.5206    1.7669    0.8938 H   0  0  0  0  0  0
    5.3185    0.1180    0.0000 H   0  0  0  0  0  0
    4.0516    2.2452    0.0000 H   0  0  0  0  0  0
    1.5878    2.2432    0.0000 H   0  0  0  0  0  0
    5.7367   -3.5268    0.0001 H   0  0  0  0  0  0
    5.9429   -1.9954    0.8941 H   0  0  0  0  0  0
    5.9430   -1.9954   -0.8939 H   0  0  0  0  0  0
    2.1118   -3.0039   -0.0001 H   0  0  0  0  0  0
  1  2  1  0  0  0
  1 12  1  0  0  0
  1 13  1  0  0  0
  1 14  1  0  0  0
  2  3  1  0  0  0
  3  8  1  0  0  0
  3  4  2  0  0  0
  4  5  1  0  0  0
  4 11  1  0  0  0
  5  6  2  0  0  0
  5  9  1  0  0  0
  6  7  1  0  0  0
  6 15  1  0  0  0
  7  8  2  0  0  0
  7 16  1  0  0  0
  8 17  1  0  0  0
  9 10  1  0  0  0
 10 18  1  0  0  0
 10 19  1  0  0  0
 10 20  1  0  0  0
 11 21  1  0  0  0
M  END
>  <i_m_Spin_multiplicity> (1)
1

>  <s_j_Task> (1)
Single Point

>  <s_j_QM_Method> (1)
DFT(b3lyp-d3)

>  <s_j_QM_Basis> (1)
cc-pvtz(-f)

>  <i_j_Number_of_canonical_orbitals> (1)
337

>  <i_j_Geometry_convergence_category> (1)
0

>  <r_j_Gas_Phase_Energy> (1)
-536.709412517208

>  <r_j_Final_Energy> (1)
-536.709412517208

>  <r_j_HOMO> (1)
-0.206301426338951

>  <r_j_LUMO> (1)
0.00542431900415542

>  <r_j_Polarizability> (1)
106.101006802042

>  <r_j_QM_Dipole_(debye)> (1)
2.04289283283969

>  <r_j_QM_Dipole_X_(debye)> (1)
1.95065181136428

>  <r_j_QM_Dipole_Y_(debye)> (1)
0.606933750431808

>  <r_j_QM_Dipole_Z_(debye)> (1)
0.000244695288748834

>  <r_j_Lowest_Frequency_(cm-1)> (1)
70.2248888126571

>  <r_j_Highest_Frequency_(cm-1)> (1)
3721.91278480302

>  <r_j_2nd_Lowest_Frequency_(cm-1)> (1)
104.283133300718

>  <i_j_Num_Negative_Frequencies> (1)
0

>  <r_j_Zero_Point_Energy_(kcal/mol)> (1)
106.423187864631

>  <r_j_Entropy_(cal/mol/K)_298.15K_1.00E+00atm> (1)
97.2660871385011

>  <r_j_Enthalpy_(kcal/mol)_298.15K_1.00E+00atm> (1)
6.97936087579457

>  <r_j_Free_Energy_(kcal/mol)_298.15K_1.00E+00atm> (1)
-22.0205230045495

>  <r_j_Internal_Energy_(kcal/mol)_298.15K_1.00E+00atm> (1)
6.3868752869673

>  <r_j_Heat_Capacity_(cal/mol/K)_298.15K_1.00E+00atm> (1)
39.3479037430724

>  <r_j_ln(Q)_298.15K_1.00E+00atm> (1)
37.1663436542574

>  <r_j_Total_Internal_Energy_(au)_298.15K_1.00E+00atm> (1)
-536.529638237225

>  <r_j_Total_Enthalpy_(au)_298.15K_1.00E+00atm> (1)
-536.528694051333

>  <r_j_Total_Free_Energy_(au)_298.15K_1.00E+00atm> (1)
-536.574908308275

>  <r_lp_tautomer_probability> (1)
0.99999999999482

>  <r_epik_Ionization_Penalty> (1)
  0.0009

>  <r_epik_Ionization_Penalty_Charging> (1)
  0.0000

>  <r_epik_Ionization_Penalty_Neutral> (1)
  0.0009

>  <r_epik_State_Penalty> (1)
  0.0006

>  <r_epik_Charging_Adjusted_Penalty> (1)
0.000579827580878354

>  <i_epik_Tot_Q> (1)
0

>  <i_epik_Tot_abs_Q> (1)
0

>  <s_lp_Force_Field> (1)
S-OPLS

>  <r_lp_Energy> (1)
17.819317

>  <b_lp_Chiralities_Consistent> (1)
1

$$$$
