7044_Cis-decalin
                    3D
 Schrodinger Suite 2021-3.
 28 29  0  0  1  0            999 V2000
   -0.4001   -1.3468    2.2595 C   0  0  0  0  0  0
    1.0720   -1.5556    1.8735 C   0  0  0  0  0  0
    1.2684   -1.4405    0.3549 C   0  0  0  0  0  0
    0.7408   -0.1052   -0.1942 C   0  0  0  0  0  0
    0.9320    0.0131   -1.7149 C   0  0  0  0  0  0
    0.4001    1.3467   -2.2595 C   0  0  0  0  0  0
   -1.0720    1.5557   -1.8735 C   0  0  0  0  0  0
   -1.2684    1.4404   -0.3549 C   0  0  0  0  0  0
   -0.7410    0.1050    0.1942 C   0  0  0  0  0  0
   -0.9321   -0.0132    1.7148 C   0  0  0  0  0  0
   -0.5201   -1.3890    3.3486 H   0  0  0  0  0  0
   -1.0006   -2.1697    1.8459 H   0  0  0  0  0  0
    1.6868   -0.7942    2.3747 H   0  0  0  0  0  0
    1.4273   -2.5294    2.2313 H   0  0  0  0  0  0
    2.3288   -1.5562    0.0962 H   0  0  0  0  0  0
    0.7351   -2.2638   -0.1434 H   0  0  0  0  0  0
    1.3178    0.7063    0.2818 H   0  0  0  0  0  0
    1.9934   -0.1072   -1.9668 H   0  0  0  0  0  0
    0.4002   -0.8166   -2.2042 H   0  0  0  0  0  0
    1.0007    2.1696   -1.8460 H   0  0  0  0  0  0
    0.5200    1.3888   -3.3487 H   0  0  0  0  0  0
   -1.4271    2.5295   -2.2312 H   0  0  0  0  0  0
   -1.6869    0.7944   -2.3747 H   0  0  0  0  0  0
   -0.7349    2.2636    0.1435 H   0  0  0  0  0  0
   -2.3287    1.5563   -0.0961 H   0  0  0  0  0  0
   -1.3181   -0.7063   -0.2819 H   0  0  0  0  0  0
   -1.9935    0.1071    1.9668 H   0  0  0  0  0  0
   -0.4003    0.8165    2.2041 H   0  0  0  0  0  0
  1 10  1  0  0  0
  1  2  1  0  0  0
  1 11  1  0  0  0
  1 12  1  0  0  0
  2  3  1  0  0  0
  2 13  1  0  0  0
  2 14  1  0  0  0
  3  4  1  0  0  0
  3 15  1  0  0  0
  3 16  1  0  0  0
  4  9  1  0  0  0
  4  5  1  0  0  0
  4 17  1  0  0  0
  5  6  1  0  0  0
  5 18  1  0  0  0
  5 19  1  0  0  0
  6  7  1  0  0  0
  6 20  1  0  0  0
  6 21  1  0  0  0
  7  8  1  0  0  0
  7 22  1  0  0  0
  7 23  1  0  0  0
  8  9  1  0  0  0
  8 24  1  0  0  0
  8 25  1  0  0  0
  9 10  1  0  0  0
  9 26  1  0  0  0
 10 27  1  0  0  0
 10 28  1  0  0  0
M  END
>  <i_m_Spin_multiplicity> (1)
1

>  <s_j_Task> (1)
Single Point

>  <s_j_QM_Method> (1)
DFT(b3lyp-d3)

>  <s_j_QM_Basis> (1)
cc-pvtz(-f)

>  <i_j_Number_of_canonical_orbitals> (1)
387

>  <i_j_Geometry_convergence_category> (1)
0

>  <r_j_Gas_Phase_Energy> (1)
-392.085685909744

>  <r_j_Final_Energy> (1)
-392.085685909744

>  <r_j_HOMO> (1)
-0.279220187198653

>  <r_j_LUMO> (1)
0.0244684289603855

>  <r_j_Polarizability> (1)
112.529940958758

>  <r_j_QM_Dipole_(debye)> (1)
0.000133844641859063

>  <r_j_QM_Dipole_X_(debye)> (1)
-0.000129279046193571

>  <r_j_QM_Dipole_Y_(debye)> (1)
1.12667109229883e-05

>  <r_j_QM_Dipole_Z_(debye)> (1)
-3.27776996544816e-05

>  <r_j_Lowest_Frequency_(cm-1)> (1)
153.423228681235

>  <r_j_Highest_Frequency_(cm-1)> (1)
3014.08765426687

>  <r_j_2nd_Lowest_Frequency_(cm-1)> (1)
164.9284543331

>  <i_j_Num_Negative_Frequencies> (1)
0

>  <r_j_Zero_Point_Energy_(kcal/mol)> (1)
165.036511089508

>  <r_j_Entropy_(cal/mol/K)_298.15K_1.00E+00atm> (1)
88.8703844774308

>  <r_j_Enthalpy_(kcal/mol)_298.15K_1.00E+00atm> (1)
5.96613282978881

>  <r_j_Free_Energy_(kcal/mol)_298.15K_1.00E+00atm> (1)
-20.5305723021572

>  <r_j_Internal_Energy_(kcal/mol)_298.15K_1.00E+00atm> (1)
5.37364724096154

>  <r_j_Heat_Capacity_(cal/mol/K)_298.15K_1.00E+00atm> (1)
37.0115437644063

>  <r_j_ln(Q)_298.15K_1.00E+00atm> (1)
34.651597759186

>  <r_j_Total_Internal_Energy_(au)_298.15K_1.00E+00atm> (1)
-391.814120034682

>  <r_j_Total_Enthalpy_(au)_298.15K_1.00E+00atm> (1)
-391.81317584879

>  <r_j_Total_Free_Energy_(au)_298.15K_1.00E+00atm> (1)
-391.855401036454

>  <r_lp_tautomer_probability> (1)
1

>  <r_epik_Ionization_Penalty> (1)
  0.0000

>  <r_epik_Ionization_Penalty_Charging> (1)
  0.0000

>  <r_epik_Ionization_Penalty_Neutral> (1)
  0.0000

>  <r_epik_State_Penalty> (1)
  0.0000

>  <r_epik_Charging_Adjusted_Penalty> (1)
0

>  <i_epik_Tot_Q> (1)
0

>  <i_epik_Tot_abs_Q> (1)
0

>  <s_lp_Force_Field> (1)
S-OPLS

>  <r_lp_Energy> (1)
11.2601

>  <b_lp_Chiralities_Consistent> (1)
1

$$$$
