7047_Quinoline
                    3D
 Schrodinger Suite 2021-3.
 17 18  0  0  1  0            999 V2000
    0.2619    1.8304    1.0642 C   0  0  0  0  0  0
    0.5701    0.8425    2.0320 C   0  0  0  0  0  0
    1.7624    0.1577    1.9790 C   0  0  0  0  0  0
    2.7041    0.4298    0.9528 C   0  0  0  0  0  0
    2.3914    1.4285   -0.0249 C   0  0  0  0  0  0
    1.1538    2.1175    0.0568 C   0  0  0  0  0  0
    3.3536    1.6758   -1.0363 C   0  0  0  0  0  0
    4.5267    0.9601   -1.0379 C   0  0  0  0  0  0
    4.7357   -0.0069   -0.0219 C   0  0  0  0  0  0
    3.8744   -0.2741    0.9390 N   0  0  0  0  0  0
   -0.6839    2.3610    1.1218 H   0  0  0  0  0  0
   -0.1444    0.6271    2.8211 H   0  0  0  0  0  0
    2.0189   -0.6025    2.7095 H   0  0  0  0  0  0
    0.9236    2.8743   -0.6891 H   0  0  0  0  0  0
    3.1509    2.4270   -1.7956 H   0  0  0  0  0  0
    5.2866    1.1216   -1.7958 H   0  0  0  0  0  0
    5.6618   -0.5809   -0.0126 H   0  0  0  0  0  0
  1  6  1  0  0  0
  1  2  2  0  0  0
  1 11  1  0  0  0
  2  3  1  0  0  0
  2 12  1  0  0  0
  3  4  2  0  0  0
  3 13  1  0  0  0
  4 10  1  0  0  0
  4  5  1  0  0  0
  5  6  2  0  0  0
  5  7  1  0  0  0
  6 14  1  0  0  0
  7  8  2  0  0  0
  7 15  1  0  0  0
  8  9  1  0  0  0
  8 16  1  0  0  0
  9 10  2  0  0  0
  9 17  1  0  0  0
M  END
>  <i_m_Spin_multiplicity> (1)
1

>  <s_j_Task> (1)
Single Point

>  <s_j_QM_Method> (1)
DFT(b3lyp-d3)

>  <s_j_QM_Basis> (1)
cc-pvtz(-f)

>  <i_j_Number_of_canonical_orbitals> (1)
287

>  <i_j_Geometry_convergence_category> (1)
0

>  <r_j_Gas_Phase_Energy> (1)
-402.06241041818

>  <r_j_Final_Energy> (1)
-402.06241041818

>  <r_j_HOMO> (1)
-0.238180035237168

>  <r_j_LUMO> (1)
-0.0602675147420471

>  <r_j_Polarizability> (1)
106.584470515941

>  <r_j_QM_Dipole_(debye)> (1)
2.0202780442202

>  <r_j_QM_Dipole_X_(debye)> (1)
-0.591342124525884

>  <r_j_QM_Dipole_Y_(debye)> (1)
1.43207148955593

>  <r_j_QM_Dipole_Z_(debye)> (1)
-1.29653735639221

>  <r_j_Lowest_Frequency_(cm-1)> (1)
190.417879263383

>  <r_j_Highest_Frequency_(cm-1)> (1)
3156.93944855325

>  <r_j_2nd_Lowest_Frequency_(cm-1)> (1)
198.530318992228

>  <i_j_Num_Negative_Frequencies> (1)
0

>  <r_j_Zero_Point_Energy_(kcal/mol)> (1)
84.5755481153325

>  <r_j_Entropy_(cal/mol/K)_298.15K_1.00E+00atm> (1)
81.0745371349394

>  <r_j_Enthalpy_(kcal/mol)_298.15K_1.00E+00atm> (1)
4.71055432292555

>  <r_j_Free_Energy_(kcal/mol)_298.15K_1.00E+00atm> (1)
-19.4618189238566

>  <r_j_Internal_Energy_(kcal/mol)_298.15K_1.00E+00atm> (1)
4.11806873409828

>  <r_j_Heat_Capacity_(cal/mol/K)_298.15K_1.00E+00atm> (1)
27.594085892507

>  <r_j_ln(Q)_298.15K_1.00E+00atm> (1)
32.8477507147103

>  <r_j_Total_Internal_Energy_(au)_298.15K_1.00E+00atm> (1)
-401.921068141944

>  <r_j_Total_Enthalpy_(au)_298.15K_1.00E+00atm> (1)
-401.920123956052

>  <r_j_Total_Free_Energy_(au)_298.15K_1.00E+00atm> (1)
-401.958645085059

>  <r_epik_Ionization_Penalty> (1)
  0.0066

>  <r_epik_Ionization_Penalty_Charging> (1)
  0.0000

>  <r_epik_Ionization_Penalty_Neutral> (1)
  0.0066

>  <r_epik_State_Penalty> (1)
  0.0049

>  <r_epik_Charging_Adjusted_Penalty> (1)
0.00489863

>  <i_epik_Tot_Q> (1)
0

>  <i_epik_Tot_abs_Q> (1)
0

>  <s_lp_Force_Field> (1)
S-OPLS

>  <r_lp_Energy> (1)
20.2605

>  <b_lp_Chiralities_Consistent> (1)
1

$$$$
