7052_2,4-dimethoxybenzoic acid
                    3D
 Schrodinger Suite 2021-3.
 22 22  0  0  1  0            999 V2000
   -0.7422    1.1347    0.0000 C   0  0  0  0  0  0
    0.0018   -0.0612    0.0000 O   0  0  0  0  0  0
    1.3850    0.0354    0.0000 C   0  0  0  0  0  0
    2.0792    1.2479    0.0000 C   0  0  0  0  0  0
    3.4897    1.2521    0.0001 C   0  0  0  0  0  0
    4.2270    0.0488    0.0000 C   0  0  0  0  0  0
    3.4771   -1.1324    0.0000 C   0  0  0  0  0  0
    2.0845   -1.1691    0.0000 C   0  0  0  0  0  0
    5.7980   -0.0909    0.0000 C   0  0  0  0  0  0
    6.1953   -1.2850    0.0001 O   0  0  0  0  0  0
    6.4596    0.9689   -0.0002 O   0  5  0  0  0  0
    4.1836    2.4356    0.0001 O   0  0  0  0  0  0
    3.4677    3.6432    0.0000 C   0  0  0  0  0  0
   -1.7968    0.8437    0.0000 H   0  0  0  0  0  0
   -0.5442    1.7495   -0.8913 H   0  0  0  0  0  0
   -0.5442    1.7496    0.8912 H   0  0  0  0  0  0
    1.5337    2.1808    0.0000 H   0  0  0  0  0  0
    4.0682   -2.0438    0.0000 H   0  0  0  0  0  0
    1.5305   -2.1036    0.0000 H   0  0  0  0  0  0
    4.2190    4.4374    0.0000 H   0  0  0  0  0  0
    2.8303    3.7613    0.8920 H   0  0  0  0  0  0
    2.8304    3.7613   -0.8920 H   0  0  0  0  0  0
  1  2  1  0  0  0
  1 14  1  0  0  0
  1 15  1  0  0  0
  1 16  1  0  0  0
  2  3  1  0  0  0
  3  8  1  0  0  0
  3  4  2  0  0  0
  4  5  1  0  0  0
  4 17  1  0  0  0
  5  6  2  0  0  0
  5 12  1  0  0  0
  6  7  1  0  0  0
  6  9  1  0  0  0
  7  8  2  0  0  0
  7 18  1  0  0  0
  8 19  1  0  0  0
  9 10  2  0  0  0
  9 11  1  0  0  0
 12 13  1  0  0  0
 13 20  1  0  0  0
 13 21  1  0  0  0
 13 22  1  0  0  0
M  END
>  <i_m_Spin_multiplicity> (1)
1

>  <s_j_Task> (1)
Single Point

>  <s_j_QM_Method> (1)
DFT(b3lyp-d3)

>  <s_j_QM_Basis> (1)
cc-pvtz(-f)

>  <i_j_Number_of_canonical_orbitals> (1)
374

>  <i_j_Geometry_convergence_category> (1)
3

>  <r_j_Gas_Phase_Energy> (1)
-649.534114836121

>  <r_j_Final_Energy> (1)
-649.534114836121

>  <r_j_HOMO> (1)
-0.0361862342705883

>  <r_j_LUMO> (1)
0.126992351118884

>  <r_j_Polarizability> (1)
124.592074446174

>  <r_j_QM_Dipole_(debye)> (1)
13.2068392793791

>  <r_j_QM_Dipole_X_(debye)> (1)
-12.2691330985202

>  <r_j_QM_Dipole_Y_(debye)> (1)
4.8876350862116

>  <r_j_QM_Dipole_Z_(debye)> (1)
0.000161806092708743

>  <r_j_Lowest_Frequency_(cm-1)> (1)
58.4907338092536

>  <r_j_Highest_Frequency_(cm-1)> (1)
3184.0563787016

>  <r_j_2nd_Lowest_Frequency_(cm-1)> (1)
72.1461344720672

>  <i_j_Num_Negative_Frequencies> (1)
0

>  <r_j_Zero_Point_Energy_(kcal/mol)> (1)
103.985648492522

>  <r_j_Entropy_(cal/mol/K)_298.15K_1.00E+00atm> (1)
105.515046593849

>  <r_j_Enthalpy_(kcal/mol)_298.15K_1.00E+00atm> (1)
7.90073968856033

>  <r_j_Free_Energy_(kcal/mol)_298.15K_1.00E+00atm> (1)
-23.5585714533958

>  <r_j_Internal_Energy_(kcal/mol)_298.15K_1.00E+00atm> (1)
7.30825409973305

>  <r_j_Heat_Capacity_(cal/mol/K)_298.15K_1.00E+00atm> (1)
43.9677843189223

>  <r_j_ln(Q)_298.15K_1.00E+00atm> (1)
39.7622691549782

>  <r_j_Total_Internal_Energy_(au)_298.15K_1.00E+00atm> (1)
-649.356756711801

>  <r_j_Total_Enthalpy_(au)_298.15K_1.00E+00atm> (1)
-649.355812525908

>  <r_j_Total_Free_Energy_(au)_298.15K_1.00E+00atm> (1)
-649.405946129696

>  <r_epik_Ionization_Penalty> (1)
  0.0012

>  <r_epik_Ionization_Penalty_Charging> (1)
  0.0012

>  <r_epik_Ionization_Penalty_Neutral> (1)
  0.0000

>  <r_epik_State_Penalty> (1)
  0.0008

>  <r_epik_Charging_Adjusted_Penalty> (1)
0.00195952

>  <i_epik_Tot_Q> (1)
-1

>  <i_epik_Tot_abs_Q> (1)
1

>  <s_lp_Force_Field> (1)
S-OPLS

>  <r_lp_Energy> (1)
29.3739

>  <b_lp_Chiralities_Consistent> (1)
1

$$$$
