70717_2,5-Pyrrolidinedione, 1-methyl-
                    3D
 Schrodinger Suite 2021-3.
 15 15  0  0  1  0            999 V2000
   -0.0062   -0.0066   -0.0001 C   0  0  0  0  0  0
    1.4471    0.0066   -0.0002 N   0  0  0  0  0  0
    2.2078    1.1756    0.0003 C   0  0  0  0  0  0
    1.7509    2.2992    0.0009 O   0  0  0  0  0  0
    3.6795    0.7707   -0.0003 C   0  0  0  0  0  0
    3.6775   -0.7667    0.0002 C   0  0  0  0  0  0
    2.2034   -1.1625   -0.0002 C   0  0  0  0  0  0
    1.7312   -2.2799   -0.0006 O   0  0  0  0  0  0
   -0.3462    1.0293    0.0002 H   0  0  0  0  0  0
   -0.3748   -0.5275    0.8868 H   0  0  0  0  0  0
   -0.3748   -0.5270   -0.8873 H   0  0  0  0  0  0
    4.1593    1.2082   -0.8799 H   0  0  0  0  0  0
    4.1606    1.2090    0.8783 H   0  0  0  0  0  0
    4.1574   -1.2059   -0.8786 H   0  0  0  0  0  0
    4.1566   -1.2052    0.8798 H   0  0  0  0  0  0
  1  2  1  0  0  0
  1  9  1  0  0  0
  1 10  1  0  0  0
  1 11  1  0  0  0
  2  7  1  0  0  0
  2  3  1  0  0  0
  3  4  2  0  0  0
  3  5  1  0  0  0
  5  6  1  0  0  0
  5 12  1  0  0  0
  5 13  1  0  0  0
  6  7  1  0  0  0
  6 14  1  0  0  0
  6 15  1  0  0  0
  7  8  2  0  0  0
M  END
>  <i_m_Spin_multiplicity> (1)
1

>  <s_j_Task> (1)
Single Point

>  <s_j_QM_Method> (1)
DFT(b3lyp-d3)

>  <s_j_QM_Basis> (1)
cc-pvtz(-f)

>  <i_j_Number_of_canonical_orbitals> (1)
246

>  <i_j_Geometry_convergence_category> (1)
0

>  <r_j_Gas_Phase_Energy> (1)
-400.130377506564

>  <r_j_Final_Energy> (1)
-400.130377506564

>  <r_j_HOMO> (1)
-0.270361085408062

>  <r_j_LUMO> (1)
-0.0304635357609388

>  <r_j_Polarizability> (1)
67.9063827169529

>  <r_j_QM_Dipole_(debye)> (1)
1.52491681985372

>  <r_j_QM_Dipole_X_(debye)> (1)
1.52488581004442

>  <r_j_QM_Dipole_Y_(debye)> (1)
0.009711741427154

>  <r_j_QM_Dipole_Z_(debye)> (1)
-0.000505842275653792

>  <r_j_Lowest_Frequency_(cm-1)> (1)
140.046325886056

>  <r_j_Highest_Frequency_(cm-1)> (1)
3113.75856866522

>  <r_j_2nd_Lowest_Frequency_(cm-1)> (1)
148.608036821993

>  <i_j_Num_Negative_Frequencies> (1)
0

>  <r_j_Zero_Point_Energy_(kcal/mol)> (1)
74.961941423949

>  <r_j_Entropy_(cal/mol/K)_298.15K_1.00E+00atm> (1)
83.4191448388369

>  <r_j_Enthalpy_(kcal/mol)_298.15K_1.00E+00atm> (1)
5.12367043287466

>  <r_j_Free_Energy_(kcal/mol)_298.15K_1.00E+00atm> (1)
-19.7477476008245

>  <r_j_Internal_Energy_(kcal/mol)_298.15K_1.00E+00atm> (1)
4.53118484404739

>  <r_j_Heat_Capacity_(cal/mol/K)_298.15K_1.00E+00atm> (1)
26.4682113690018

>  <r_j_ln(Q)_298.15K_1.00E+00atm> (1)
33.3303424981389

>  <r_j_Total_Internal_Energy_(au)_298.15K_1.00E+00atm> (1)
-400.00369714544

>  <r_j_Total_Enthalpy_(au)_298.15K_1.00E+00atm> (1)
-400.002752959548

>  <r_j_Total_Free_Energy_(au)_298.15K_1.00E+00atm> (1)
-400.042388087339

>  <r_lp_tautomer_probability> (1)
1

>  <r_epik_Ionization_Penalty> (1)
  0.0000

>  <r_epik_Ionization_Penalty_Charging> (1)
  0.0000

>  <r_epik_Ionization_Penalty_Neutral> (1)
  0.0000

>  <r_epik_State_Penalty> (1)
  0.0000

>  <r_epik_Charging_Adjusted_Penalty> (1)
0

>  <i_epik_Tot_Q> (1)
0

>  <i_epik_Tot_abs_Q> (1)
0

>  <s_lp_Force_Field> (1)
S-OPLS

>  <r_lp_Energy> (1)
-9.27053

>  <b_lp_Chiralities_Consistent> (1)
1

$$$$
