7114_4-nitrobiphenyl
                    3D
 Schrodinger Suite 2021-3.
 24 25  0  0  1  0            999 V2000
   -2.7957    0.0004   -0.0015 C   0  0  0  0  0  0
   -2.0947   -1.2034    0.0820 C   0  0  0  0  0  0
   -0.7018   -1.2047    0.0825 C   0  0  0  0  0  0
    0.0175   -0.0010    0.0016 C   0  0  0  0  0  0
   -0.7005    1.2034   -0.0796 C   0  0  0  0  0  0
   -2.0933    1.2036   -0.0827 C   0  0  0  0  0  0
    1.4996   -0.0012    0.0015 C   0  0  0  0  0  0
    2.2204    1.0047    0.6703 C   0  0  0  0  0  0
    3.6094    1.0139    0.6728 C   0  0  0  0  0  0
    4.2879    0.0001   -0.0003 C   0  0  0  0  0  0
    3.6095   -1.0144   -0.6722 C   0  0  0  0  0  0
    2.2205   -1.0065   -0.6680 C   0  0  0  0  0  0
    5.7573    0.0010   -0.0014 N   0  3  1  0  0  0
    6.3307   -0.9142   -0.5937 O   0  0  0  0  0  0
    6.3303    0.9172    0.5900 O   0  5  0  0  0  0
   -3.8815    0.0009   -0.0033 H   0  0  0  0  0  0
   -2.6334   -2.1435    0.1549 H   0  0  0  0  0  0
   -0.1654   -2.1443    0.1745 H   0  0  0  0  0  0
   -0.1626    2.1424   -0.1690 H   0  0  0  0  0  0
   -2.6309    2.1442   -0.1568 H   0  0  0  0  0  0
    1.6837    1.7738    1.2159 H   0  0  0  0  0  0
    4.1729    1.7797    1.1906 H   0  0  0  0  0  0
    4.1731   -1.7796   -1.1907 H   0  0  0  0  0  0
    1.6838   -1.7761   -1.2130 H   0  0  0  0  0  0
  1  6  1  0  0  0
  1  2  2  0  0  0
  1 16  1  0  0  0
  2  3  1  0  0  0
  2 17  1  0  0  0
  3  4  2  0  0  0
  3 18  1  0  0  0
  4  5  1  0  0  0
  4  7  1  0  0  0
  5  6  2  0  0  0
  5 19  1  0  0  0
  6 20  1  0  0  0
  7 12  1  0  0  0
  7  8  2  0  0  0
  8  9  1  0  0  0
  8 21  1  0  0  0
  9 10  2  0  0  0
  9 22  1  0  0  0
 10 11  1  0  0  0
 10 13  1  0  0  0
 11 12  2  0  0  0
 11 23  1  0  0  0
 12 24  1  0  0  0
 13 14  2  0  0  0
 13 15  1  0  0  0
M  END
>  <i_m_Spin_multiplicity> (1)
1

>  <s_j_Task> (1)
Single Point

>  <s_j_QM_Method> (1)
DFT(b3lyp-d3)

>  <s_j_QM_Basis> (1)
cc-pvtz(-f)

>  <i_j_Number_of_canonical_orbitals> (1)
415

>  <i_j_Geometry_convergence_category> (1)
0

>  <r_j_Gas_Phase_Energy> (1)
-668.038026323511

>  <r_j_Final_Energy> (1)
-668.038026323511

>  <r_j_HOMO> (1)
-0.254955384677352

>  <r_j_LUMO> (1)
-0.101045682353608

>  <r_j_Polarizability> (1)
159.585196020712

>  <r_j_QM_Dipole_(debye)> (1)
5.51787253428716

>  <r_j_QM_Dipole_X_(debye)> (1)
-5.51785901938378

>  <r_j_QM_Dipole_Y_(debye)> (1)
-0.0117430610586637

>  <r_j_QM_Dipole_Z_(debye)> (1)
-0.00335370879335572

>  <r_j_Lowest_Frequency_(cm-1)> (1)
68.7775387207924

>  <r_j_Highest_Frequency_(cm-1)> (1)
3184.75647979324

>  <r_j_2nd_Lowest_Frequency_(cm-1)> (1)
89.351114403344

>  <i_j_Num_Negative_Frequencies> (1)
0

>  <r_j_Zero_Point_Energy_(kcal/mol)> (1)
115.015510265813

>  <r_j_Entropy_(cal/mol/K)_298.15K_1.00E+00atm> (1)
103.775424582087

>  <r_j_Enthalpy_(kcal/mol)_298.15K_1.00E+00atm> (1)
7.50937730591343

>  <r_j_Free_Energy_(kcal/mol)_298.15K_1.00E+00atm> (1)
-23.4312655332359

>  <r_j_Internal_Energy_(kcal/mol)_298.15K_1.00E+00atm> (1)
6.91689171708616

>  <r_j_Heat_Capacity_(cal/mol/K)_298.15K_1.00E+00atm> (1)
44.3743941922142

>  <r_j_ln(Q)_298.15K_1.00E+00atm> (1)
39.547401616323

>  <r_j_Total_Internal_Energy_(au)_298.15K_1.00E+00atm> (1)
-667.843714671158

>  <r_j_Total_Enthalpy_(au)_298.15K_1.00E+00atm> (1)
-667.842770485266

>  <r_j_Total_Free_Energy_(au)_298.15K_1.00E+00atm> (1)
-667.892077538495

>  <r_lp_tautomer_probability> (1)
1

>  <r_epik_Ionization_Penalty> (1)
  0.0000

>  <r_epik_Ionization_Penalty_Charging> (1)
  0.0000

>  <r_epik_Ionization_Penalty_Neutral> (1)
  0.0000

>  <r_epik_State_Penalty> (1)
  0.0000

>  <r_epik_Charging_Adjusted_Penalty> (1)
0

>  <i_epik_Tot_Q> (1)
0

>  <i_epik_Tot_abs_Q> (1)
2

>  <s_lp_Force_Field> (1)
S-OPLS

>  <r_lp_Energy> (1)
25.3491

>  <b_lp_Chiralities_Consistent> (1)
1

$$$$
