7144_2-methoxy-4-methylphenol
                    3D
 Schrodinger Suite 2021-3.
 20 20  0  0  1  0            999 V2000
   -2.9430   -2.5099    0.0000 C   0  0  0  0  0  0
   -2.1589   -1.2167    0.0000 C   0  0  0  0  0  0
   -0.7554   -1.2272    0.0000 C   0  0  0  0  0  0
   -0.0152   -0.0435    0.0000 C   0  0  0  0  0  0
   -0.6917    1.1944    0.0000 C   0  0  0  0  0  0
   -2.0833    1.2063    0.0000 C   0  0  0  0  0  0
   -2.8128    0.0148   -0.0001 C   0  0  0  0  0  0
    0.0738    2.3281    0.0001 O   0  0  0  0  0  0
    1.3474    0.0312    0.0000 O   0  0  0  0  0  0
    2.0794   -1.1820   -0.0001 C   0  0  0  0  0  0
   -2.2828   -3.3822    0.0005 H   0  0  0  0  0  0
   -3.5901   -2.5846   -0.8817 H   0  0  0  0  0  0
   -3.5908   -2.5841    0.8812 H   0  0  0  0  0  0
   -0.2401   -2.1808    0.0001 H   0  0  0  0  0  0
   -2.6017    2.1633   -0.0001 H   0  0  0  0  0  0
   -3.8987    0.0531   -0.0001 H   0  0  0  0  0  0
   -0.5149    3.0938    0.0001 H   0  0  0  0  0  0
    3.1328   -0.8971   -0.0001 H   0  0  0  0  0  0
    1.8694   -1.7855   -0.8938 H   0  0  0  0  0  0
    1.8694   -1.7858    0.8934 H   0  0  0  0  0  0
  1  2  1  0  0  0
  1 11  1  0  0  0
  1 12  1  0  0  0
  1 13  1  0  0  0
  2  7  1  0  0  0
  2  3  2  0  0  0
  3  4  1  0  0  0
  3 14  1  0  0  0
  4  5  2  0  0  0
  4  9  1  0  0  0
  5  6  1  0  0  0
  5  8  1  0  0  0
  6  7  2  0  0  0
  6 15  1  0  0  0
  7 16  1  0  0  0
  8 17  1  0  0  0
  9 10  1  0  0  0
 10 18  1  0  0  0
 10 19  1  0  0  0
 10 20  1  0  0  0
M  END
>  <i_m_Spin_multiplicity> (1)
1

>  <s_j_Task> (1)
Single Point

>  <s_j_QM_Method> (1)
DFT(b3lyp-d3)

>  <s_j_QM_Basis> (1)
cc-pvtz(-f)

>  <i_j_Number_of_canonical_orbitals> (1)
315

>  <i_j_Geometry_convergence_category> (1)
3

>  <r_j_Gas_Phase_Energy> (1)
-461.473843998357

>  <r_j_Final_Energy> (1)
-461.473843998357

>  <r_j_HOMO> (1)
-0.205398604549713

>  <r_j_LUMO> (1)
-0.00239263919078651

>  <r_j_Polarizability> (1)
101.208622334179

>  <r_j_QM_Dipole_(debye)> (1)
0.893744619216619

>  <r_j_QM_Dipole_X_(debye)> (1)
-0.635668246388024

>  <r_j_QM_Dipole_Y_(debye)> (1)
-0.628255761898195

>  <r_j_QM_Dipole_Z_(debye)> (1)
-0.000150181062301405

>  <r_j_Lowest_Frequency_(cm-1)> (1)
105.927429264189

>  <r_j_Highest_Frequency_(cm-1)> (1)
3773.84145365326

>  <r_j_2nd_Lowest_Frequency_(cm-1)> (1)
142.595148791014

>  <i_j_Num_Negative_Frequencies> (1)
0

>  <r_j_Zero_Point_Energy_(kcal/mol)> (1)
102.976642960102

>  <r_j_Entropy_(cal/mol/K)_298.15K_1.00E+00atm> (1)
93.4385500075542

>  <r_j_Enthalpy_(kcal/mol)_298.15K_1.00E+00atm> (1)
6.51005627268643

>  <r_j_Free_Energy_(kcal/mol)_298.15K_1.00E+00atm> (1)
-21.3486474120659

>  <r_j_Internal_Energy_(kcal/mol)_298.15K_1.00E+00atm> (1)
5.91757068385915

>  <r_j_Heat_Capacity_(cal/mol/K)_298.15K_1.00E+00atm> (1)
36.5142455252916

>  <r_j_ln(Q)_298.15K_1.00E+00atm> (1)
36.032348827795

>  <r_j_Total_Internal_Energy_(au)_298.15K_1.00E+00atm> (1)
-461.30031002182

>  <r_j_Total_Enthalpy_(au)_298.15K_1.00E+00atm> (1)
-461.299365835927

>  <r_j_Total_Free_Energy_(au)_298.15K_1.00E+00atm> (1)
-461.343761506458

>  <r_lp_tautomer_probability> (1)
1

>  <r_epik_Ionization_Penalty> (1)
  0.0005

>  <r_epik_Ionization_Penalty_Charging> (1)
  0.0000

>  <r_epik_Ionization_Penalty_Neutral> (1)
  0.0005

>  <r_epik_State_Penalty> (1)
  0.0003

>  <r_epik_Charging_Adjusted_Penalty> (1)
0.000289491

>  <i_epik_Tot_Q> (1)
0

>  <i_epik_Tot_abs_Q> (1)
0

>  <s_lp_Force_Field> (1)
S-OPLS

>  <r_lp_Energy> (1)
10.8254

>  <b_lp_Chiralities_Consistent> (1)
1

$$$$
