7150_Methyl benzoate
                    3D
 Schrodinger Suite 2021-3.
 18 18  0  0  1  0            999 V2000
   -0.1225   -0.0267    0.0000 C   0  0  0  0  0  0
    1.3133   -0.0720    0.0001 O   0  0  0  0  0  0
    1.8459   -1.3168    0.0000 C   0  0  0  0  0  0
    1.1671   -2.3257   -0.0001 O   0  0  0  0  0  0
    3.3358   -1.3005    0.0000 C   0  0  0  0  0  0
    3.9992   -2.5344    0.0000 C   0  0  0  0  0  0
    5.3903   -2.5785    0.0000 C   0  0  0  0  0  0
    6.1258   -1.3909    0.0000 C   0  0  0  0  0  0
    5.4675   -0.1593    0.0000 C   0  0  0  0  0  0
    4.0752   -0.1103    0.0000 C   0  0  0  0  0  0
   -0.3841    1.0314    0.0001 H   0  0  0  0  0  0
   -0.5235   -0.5232    0.8877 H   0  0  0  0  0  0
   -0.5234   -0.5231   -0.8878 H   0  0  0  0  0  0
    3.4051   -3.4420    0.0000 H   0  0  0  0  0  0
    5.9020   -3.5363    0.0000 H   0  0  0  0  0  0
    7.2116   -1.4253    0.0000 H   0  0  0  0  0  0
    6.0404    0.7632   -0.0001 H   0  0  0  0  0  0
    3.5562    0.8413    0.0000 H   0  0  0  0  0  0
  1  2  1  0  0  0
  1 11  1  0  0  0
  1 12  1  0  0  0
  1 13  1  0  0  0
  2  3  1  0  0  0
  3  4  2  0  0  0
  3  5  1  0  0  0
  5 10  1  0  0  0
  5  6  2  0  0  0
  6  7  1  0  0  0
  6 14  1  0  0  0
  7  8  2  0  0  0
  7 15  1  0  0  0
  8  9  1  0  0  0
  8 16  1  0  0  0
  9 10  2  0  0  0
  9 17  1  0  0  0
 10 18  1  0  0  0
M  END
>  <i_m_Spin_multiplicity> (1)
1

>  <s_j_Task> (1)
Single Point

>  <s_j_QM_Method> (1)
DFT(b3lyp-d3)

>  <s_j_QM_Basis> (1)
cc-pvtz(-f)

>  <i_j_Number_of_canonical_orbitals> (1)
296

>  <i_j_Geometry_convergence_category> (1)
0

>  <r_j_Gas_Phase_Energy> (1)
-460.293877703515

>  <r_j_Final_Energy> (1)
-460.293877703515

>  <r_j_HOMO> (1)
-0.274415881828305

>  <r_j_LUMO> (1)
-0.0638885753219184

>  <r_j_Polarizability> (1)
96.3018236598679

>  <r_j_QM_Dipole_(debye)> (1)
1.92948908236504

>  <r_j_QM_Dipole_X_(debye)> (1)
0.986974191372814

>  <r_j_QM_Dipole_Y_(debye)> (1)
1.65795357731051

>  <r_j_QM_Dipole_Z_(debye)> (1)
3.62529842234287e-06

>  <r_j_Lowest_Frequency_(cm-1)> (1)
85.8264717088747

>  <r_j_Highest_Frequency_(cm-1)> (1)
3168.16886567946

>  <r_j_2nd_Lowest_Frequency_(cm-1)> (1)
132.693249736918

>  <i_j_Num_Negative_Frequencies> (1)
0

>  <r_j_Zero_Point_Energy_(kcal/mol)> (1)
89.7315746442396

>  <r_j_Entropy_(cal/mol/K)_298.15K_1.00E+00atm> (1)
89.9146910262015

>  <r_j_Enthalpy_(kcal/mol)_298.15K_1.00E+00atm> (1)
5.86190753103048

>  <r_j_Free_Energy_(kcal/mol)_298.15K_1.00E+00atm> (1)
-20.9461575984315

>  <r_j_Internal_Energy_(kcal/mol)_298.15K_1.00E+00atm> (1)
5.26942194220321

>  <r_j_Heat_Capacity_(cal/mol/K)_298.15K_1.00E+00atm> (1)
31.9735848422906

>  <r_j_ln(Q)_298.15K_1.00E+00atm> (1)
35.3530246024901

>  <r_j_Total_Internal_Energy_(au)_298.15K_1.00E+00atm> (1)
-460.142483977798

>  <r_j_Total_Enthalpy_(au)_298.15K_1.00E+00atm> (1)
-460.141539791905

>  <r_j_Total_Free_Energy_(au)_298.15K_1.00E+00atm> (1)
-460.184261163313

>  <r_lp_tautomer_probability> (1)
1

>  <r_epik_Ionization_Penalty> (1)
  0.0000

>  <r_epik_Ionization_Penalty_Charging> (1)
  0.0000

>  <r_epik_Ionization_Penalty_Neutral> (1)
  0.0000

>  <r_epik_State_Penalty> (1)
  0.0000

>  <r_epik_Charging_Adjusted_Penalty> (1)
0

>  <i_epik_Tot_Q> (1)
0

>  <i_epik_Tot_abs_Q> (1)
0

>  <s_lp_Force_Field> (1)
S-OPLS

>  <r_lp_Energy> (1)
7.4645

>  <b_lp_Chiralities_Consistent> (1)
1

>  <s_epik_Chemistry_Notes> (1)
This compound has an ester and may undergo hydrolysis at high or low pH.

$$$$
