71552_Heptadecanal
                    3D
 Schrodinger Suite 2021-3.
 52 51  0  0  1  0            999 V2000
   -4.9410    6.5565    1.6509 C   0  0  0  0  0  0
   -4.2917    5.1827    1.4586 C   0  0  0  0  0  0
   -4.6159    4.5571    0.0947 C   0  0  0  0  0  0
   -4.0606    3.1380   -0.0999 C   0  0  0  0  0  0
   -2.5291    3.0524   -0.1380 C   0  0  0  0  0  0
   -2.0128    1.6208   -0.3206 C   0  0  0  0  0  0
   -0.4833    1.5183   -0.3381 C   0  0  0  0  0  0
    0.0228    0.0736   -0.4071 C   0  0  0  0  0  0
    1.5508   -0.0489   -0.3814 C   0  0  0  0  0  0
    2.0318   -1.5031   -0.3198 C   0  0  0  0  0  0
    3.5573   -1.6419   -0.2366 C   0  0  0  0  0  0
    4.0548   -3.0927   -0.1342 C   0  0  0  0  0  0
    3.6108   -3.8134    1.1458 C   0  0  0  0  0  0
    4.1975   -5.2209    1.2914 C   0  0  0  0  0  0
    3.6955   -5.9410    2.5495 C   0  0  0  0  0  0
    4.2865   -7.3533    2.7210 C   0  0  0  0  0  0
    5.7711   -7.3051    3.0027 C   0  0  0  0  0  0
    6.6237   -7.8635    2.3486 O   0  0  0  0  0  0
   -4.6958    6.9845    2.6286 H   0  0  0  0  0  0
   -6.0328    6.4908    1.5792 H   0  0  0  0  0  0
   -4.6029    7.2626    0.8837 H   0  0  0  0  0  0
   -3.2053    5.2772    1.5772 H   0  0  0  0  0  0
   -4.6267    4.5019    2.2536 H   0  0  0  0  0  0
   -5.7073    4.5320   -0.0290 H   0  0  0  0  0  0
   -4.2358    5.2113   -0.7034 H   0  0  0  0  0  0
   -4.4374    2.4913    0.7059 H   0  0  0  0  0  0
   -4.4606    2.7207   -1.0339 H   0  0  0  0  0  0
   -2.1498    3.6883   -0.9510 H   0  0  0  0  0  0
   -2.1084    3.4623    0.7894 H   0  0  0  0  0  0
   -2.4058    0.9931    0.4923 H   0  0  0  0  0  0
   -2.4189    1.1981   -1.2507 H   0  0  0  0  0  0
   -0.0855    2.0914   -1.1876 H   0  0  0  0  0  0
   -0.0791    1.9970    0.5656 H   0  0  0  0  0  0
   -0.3952   -0.4899    0.4398 H   0  0  0  0  0  0
   -0.3684   -0.4110   -1.3131 H   0  0  0  0  0  0
    1.9773    0.4479   -1.2643 H   0  0  0  0  0  0
    1.9418    0.4950    0.4906 H   0  0  0  0  0  0
    1.5676   -1.9835    0.5511 H   0  0  0  0  0  0
    1.6643   -2.0512   -1.1995 H   0  0  0  0  0  0
    4.0076   -1.1685   -1.1191 H   0  0  0  0  0  0
    3.9236   -1.0751    0.6318 H   0  0  0  0  0  0
    3.7089   -3.6615   -1.0090 H   0  0  0  0  0  0
    5.1520   -3.0986   -0.1825 H   0  0  0  0  0  0
    3.8976   -3.2087    2.0186 H   0  0  0  0  0  0
    2.5159   -3.8840    1.1732 H   0  0  0  0  0  0
    3.9427   -5.8213    0.4071 H   0  0  0  0  0  0
    5.2948   -5.1631    1.3078 H   0  0  0  0  0  0
    3.9327   -5.3381    3.4377 H   0  0  0  0  0  0
    2.6019   -6.0158    2.5175 H   0  0  0  0  0  0
    3.8063   -7.8473    3.5781 H   0  0  0  0  0  0
    4.1207   -7.9711    1.8327 H   0  0  0  0  0  0
    6.0480   -6.6831    3.8888 H   0  0  0  0  0  0
  1  2  1  0  0  0
  1 19  1  0  0  0
  1 20  1  0  0  0
  1 21  1  0  0  0
  2  3  1  0  0  0
  2 22  1  0  0  0
  2 23  1  0  0  0
  3  4  1  0  0  0
  3 24  1  0  0  0
  3 25  1  0  0  0
  4  5  1  0  0  0
  4 26  1  0  0  0
  4 27  1  0  0  0
  5  6  1  0  0  0
  5 28  1  0  0  0
  5 29  1  0  0  0
  6  7  1  0  0  0
  6 30  1  0  0  0
  6 31  1  0  0  0
  7  8  1  0  0  0
  7 32  1  0  0  0
  7 33  1  0  0  0
  8  9  1  0  0  0
  8 34  1  0  0  0
  8 35  1  0  0  0
  9 10  1  0  0  0
  9 36  1  0  0  0
  9 37  1  0  0  0
 10 11  1  0  0  0
 10 38  1  0  0  0
 10 39  1  0  0  0
 11 12  1  0  0  0
 11 40  1  0  0  0
 11 41  1  0  0  0
 12 13  1  0  0  0
 12 42  1  0  0  0
 12 43  1  0  0  0
 13 14  1  0  0  0
 13 44  1  0  0  0
 13 45  1  0  0  0
 14 15  1  0  0  0
 14 46  1  0  0  0
 14 47  1  0  0  0
 15 16  1  0  0  0
 15 48  1  0  0  0
 15 49  1  0  0  0
 16 17  1  0  0  0
 16 50  1  0  0  0
 16 51  1  0  0  0
 17 18  2  0  0  0
 17 52  1  0  0  0
M  END
>  <i_m_Spin_multiplicity> (1)
1

>  <s_j_Task> (1)
Single Point

>  <s_j_QM_Method> (1)
DFT(b3lyp-d3)

>  <s_j_QM_Basis> (1)
cc-pvtz(-f)

>  <i_j_Number_of_canonical_orbitals> (1)
716

>  <i_j_Geometry_convergence_category> (1)
3

>  <r_j_Gas_Phase_Energy> (1)
-743.830600087003

>  <r_j_Final_Energy> (1)
-743.830600087003

>  <r_j_HOMO> (1)
-0.288033233801627

>  <r_j_LUMO> (1)
-0.0874201361964073

>  <r_j_Polarizability> (1)
212.46581799746

>  <r_j_QM_Dipole_(debye)> (1)
2.86735076122842

>  <r_j_QM_Dipole_X_(debye)> (1)
-2.3602752075511

>  <r_j_QM_Dipole_Y_(debye)> (1)
1.38084676717736

>  <r_j_QM_Dipole_Z_(debye)> (1)
0.862591176695356

>  <r_j_Lowest_Frequency_(cm-1)> (1)
27.9570107110964

>  <r_j_Highest_Frequency_(cm-1)> (1)
3046.80121874004

>  <r_j_2nd_Lowest_Frequency_(cm-1)> (1)
47.0787717170222

>  <i_j_Num_Negative_Frequencies> (1)
0

>  <r_j_Zero_Point_Energy_(kcal/mol)> (1)
303.247183642504

>  <r_j_Entropy_(cal/mol/K)_298.15K_1.00E+00atm> (1)
151.271806660513

>  <r_j_Enthalpy_(kcal/mol)_298.15K_1.00E+00atm> (1)
14.1449269032972

>  <r_j_Free_Energy_(kcal/mol)_298.15K_1.00E+00atm> (1)
-30.9567622525346

>  <r_j_Internal_Energy_(kcal/mol)_298.15K_1.00E+00atm> (1)
13.55244131447

>  <r_j_Heat_Capacity_(cal/mol/K)_298.15K_1.00E+00atm> (1)
81.83974137725

>  <r_j_ln(Q)_298.15K_1.00E+00atm> (1)
52.2489708379377

>  <r_j_Total_Internal_Energy_(au)_298.15K_1.00E+00atm> (1)
-743.325747745958

>  <r_j_Total_Enthalpy_(au)_298.15K_1.00E+00atm> (1)
-743.324803560066

>  <r_j_Total_Free_Energy_(au)_298.15K_1.00E+00atm> (1)
-743.39667767721

>  <r_lp_tautomer_probability> (1)
1

>  <r_epik_Ionization_Penalty> (1)
  0.0000

>  <r_epik_Ionization_Penalty_Charging> (1)
  0.0000

>  <r_epik_Ionization_Penalty_Neutral> (1)
  0.0000

>  <r_epik_State_Penalty> (1)
  0.0000

>  <r_epik_Charging_Adjusted_Penalty> (1)
0

>  <i_epik_Tot_Q> (1)
0

>  <i_epik_Tot_abs_Q> (1)
0

>  <s_lp_Force_Field> (1)
S-OPLS

>  <r_lp_Energy> (1)
8.210471

>  <b_lp_Chiralities_Consistent> (1)
1

$$$$
