7187_Benzoyl peroxide
                    3D
 Schrodinger Suite 2021-3.
 28 29  0  0  1  0            999 V2000
   -4.8237    1.4069    0.0014 C   0  0  0  0  0  0
   -4.1848    0.1651    0.0017 C   0  0  0  0  0  0
   -2.7940    0.0922    0.0010 C   0  0  0  0  0  0
   -2.0399    1.2750   -0.0001 C   0  0  0  0  0  0
   -2.6820    2.5202   -0.0005 C   0  0  0  0  0  0
   -4.0718    2.5839    0.0002 C   0  0  0  0  0  0
   -0.5510    1.2908   -0.0010 C   0  0  0  0  0  0
    0.1568    2.2655   -0.0020 O   0  0  0  0  0  0
   -0.0882   -0.0093   -0.0003 O   0  0  0  0  0  0
    1.3488    0.0109   -0.0003 O   0  0  0  0  0  0
    1.8110   -1.2894   -0.0010 C   0  0  0  0  0  0
    1.1025   -2.2637   -0.0020 O   0  0  0  0  0  0
    3.2999   -1.2747   -0.0001 C   0  0  0  0  0  0
    3.9410   -2.5204   -0.0005 C   0  0  0  0  0  0
    5.3307   -2.5854    0.0002 C   0  0  0  0  0  0
    6.0837   -1.4090    0.0013 C   0  0  0  0  0  0
    5.4459   -0.1666    0.0017 C   0  0  0  0  0  0
    4.0551   -0.0926    0.0010 C   0  0  0  0  0  0
   -5.9087    1.4573    0.0020 H   0  0  0  0  0  0
   -4.7711   -0.7486    0.0026 H   0  0  0  0  0  0
   -2.2953   -0.8705    0.0012 H   0  0  0  0  0  0
   -2.0751    3.4192   -0.0014 H   0  0  0  0  0  0
   -4.5690    3.5491   -0.0001 H   0  0  0  0  0  0
    3.3332   -3.4189   -0.0014 H   0  0  0  0  0  0
    5.8270   -3.5510   -0.0001 H   0  0  0  0  0  0
    7.1686   -1.4604    0.0019 H   0  0  0  0  0  0
    6.0330    0.7465    0.0026 H   0  0  0  0  0  0
    3.5573    0.8706    0.0013 H   0  0  0  0  0  0
  1  6  1  0  0  0
  1  2  2  0  0  0
  1 19  1  0  0  0
  2  3  1  0  0  0
  2 20  1  0  0  0
  3  4  2  0  0  0
  3 21  1  0  0  0
  4  5  1  0  0  0
  4  7  1  0  0  0
  5  6  2  0  0  0
  5 22  1  0  0  0
  6 23  1  0  0  0
  7  8  2  0  0  0
  7  9  1  0  0  0
  9 10  1  0  0  0
 10 11  1  0  0  0
 11 12  2  0  0  0
 11 13  1  0  0  0
 13 18  1  0  0  0
 13 14  2  0  0  0
 14 15  1  0  0  0
 14 24  1  0  0  0
 15 16  2  0  0  0
 15 25  1  0  0  0
 16 17  1  0  0  0
 16 26  1  0  0  0
 17 18  2  0  0  0
 17 27  1  0  0  0
 18 28  1  0  0  0
M  END
>  <i_m_Spin_multiplicity> (1)
1

>  <s_j_Task> (1)
Single Point

>  <s_j_QM_Method> (1)
DFT(b3lyp-d3)

>  <s_j_QM_Basis> (1)
cc-pvtz(-f)

>  <i_j_Number_of_canonical_orbitals> (1)
494

>  <i_j_Geometry_convergence_category> (1)
0

>  <r_j_Gas_Phase_Energy> (1)
-840.638177425655

>  <r_j_Final_Energy> (1)
-840.638177425655

>  <r_j_HOMO> (1)
-0.267842615305597

>  <r_j_LUMO> (1)
-0.073492584182956

>  <r_j_Polarizability> (1)
176.92484913242

>  <r_j_QM_Dipole_(debye)> (1)
0.00533023429696226

>  <r_j_QM_Dipole_X_(debye)> (1)
0.00166940525140758

>  <r_j_QM_Dipole_Y_(debye)> (1)
-0.00180183130152249

>  <r_j_QM_Dipole_Z_(debye)> (1)
0.00473052721458606

>  <r_j_Lowest_Frequency_(cm-1)> (1)
33.5861600220661

>  <r_j_Highest_Frequency_(cm-1)> (1)
3165.71214344531

>  <r_j_2nd_Lowest_Frequency_(cm-1)> (1)
63.5705277935561

>  <i_j_Num_Negative_Frequencies> (1)
0

>  <r_j_Zero_Point_Energy_(kcal/mol)> (1)
130.915852862145

>  <r_j_Entropy_(cal/mol/K)_298.15K_1.00E+00atm> (1)
118.162716983472

>  <r_j_Enthalpy_(kcal/mol)_298.15K_1.00E+00atm> (1)
9.42499190423372

>  <r_j_Free_Energy_(kcal/mol)_298.15K_1.00E+00atm> (1)
-25.8052221643884

>  <r_j_Internal_Energy_(kcal/mol)_298.15K_1.00E+00atm> (1)
8.83250631540645

>  <r_j_Heat_Capacity_(cal/mol/K)_298.15K_1.00E+00atm> (1)
55.3472765852843

>  <r_j_ln(Q)_298.15K_1.00E+00atm> (1)
43.5541769302195

>  <r_j_Total_Internal_Energy_(au)_298.15K_1.00E+00atm> (1)
-840.41547423812

>  <r_j_Total_Enthalpy_(au)_298.15K_1.00E+00atm> (1)
-840.414530052228

>  <r_j_Total_Free_Energy_(au)_298.15K_1.00E+00atm> (1)
-840.47067297238

>  <r_lp_tautomer_probability> (1)
1

>  <r_epik_Ionization_Penalty> (1)
  0.0000

>  <r_epik_Ionization_Penalty_Charging> (1)
  0.0000

>  <r_epik_Ionization_Penalty_Neutral> (1)
  0.0000

>  <r_epik_State_Penalty> (1)
  0.0000

>  <r_epik_Charging_Adjusted_Penalty> (1)
0

>  <i_epik_Tot_Q> (1)
0

>  <i_epik_Tot_abs_Q> (1)
0

>  <s_lp_Force_Field> (1)
S-OPLS

>  <r_lp_Energy> (1)
18.731588

>  <b_lp_Chiralities_Consistent> (1)
1

$$$$
