7222_Benzothiazole
                    3D
 Schrodinger Suite 2021-3.
 14 15  0  0  1  0            999 V2000
   -0.1598   -2.8287   -0.0548 C   0  0  0  0  0  0
   -0.0775   -2.1104   -1.2604 C   0  0  0  0  0  0
   -0.0681   -2.7654   -2.4881 C   0  0  0  0  0  0
   -0.1428   -4.1605   -2.4884 C   0  0  0  0  0  0
   -0.2260   -4.8956   -1.2803 C   0  0  0  0  0  0
   -0.2340   -4.2153   -0.0549 C   0  0  0  0  0  0
   -0.2947   -6.2758   -1.4255 N   0  0  0  0  0  0
   -0.2668   -6.6001   -2.6742 C   0  0  0  0  0  0
   -0.1535   -5.2764   -3.8438 S   0  0  0  0  0  0
   -0.1651   -2.2898    0.8877 H   0  0  0  0  0  0
   -0.0203   -1.0263   -1.2355 H   0  0  0  0  0  0
   -0.0045   -2.2071   -3.4162 H   0  0  0  0  0  0
   -0.2980   -4.7846    0.8664 H   0  0  0  0  0  0
   -0.3087   -7.6231   -3.0321 H   0  0  0  0  0  0
  1  6  1  0  0  0
  1  2  2  0  0  0
  1 10  1  0  0  0
  2  3  1  0  0  0
  2 11  1  0  0  0
  3  4  2  0  0  0
  3 12  1  0  0  0
  4  9  1  0  0  0
  4  5  1  0  0  0
  5  6  2  0  0  0
  5  7  1  0  0  0
  6 13  1  0  0  0
  7  8  2  0  0  0
  8  9  1  0  0  0
  8 14  1  0  0  0
M  END
>  <i_m_Spin_multiplicity> (1)
1

>  <s_j_Task> (1)
Single Point

>  <s_j_QM_Method> (1)
DFT(b3lyp-d3)

>  <s_j_QM_Basis> (1)
cc-pvtz(-f)

>  <i_j_Number_of_canonical_orbitals> (1)
252

>  <i_j_Geometry_convergence_category> (1)
3

>  <r_j_Gas_Phase_Energy> (1)
-722.839993261824

>  <r_j_Final_Energy> (1)
-722.839993261824

>  <r_j_HOMO> (1)
-0.258406466307478

>  <r_j_LUMO> (1)
-0.0628615600641823

>  <r_j_Polarizability> (1)
98.5153042121127

>  <r_j_QM_Dipole_(debye)> (1)
1.25231070874822

>  <r_j_QM_Dipole_X_(debye)> (1)
0.0806341648384045

>  <r_j_QM_Dipole_Y_(debye)> (1)
0.989276701902337

>  <r_j_QM_Dipole_Z_(debye)> (1)
-0.763617607038711

>  <r_j_Lowest_Frequency_(cm-1)> (1)
206.429434821272

>  <r_j_Highest_Frequency_(cm-1)> (1)
3161.33795978747

>  <r_j_2nd_Lowest_Frequency_(cm-1)> (1)
225.137809560602

>  <i_j_Num_Negative_Frequencies> (1)
0

>  <r_j_Zero_Point_Energy_(kcal/mol)> (1)
63.8792019504629

>  <r_j_Entropy_(cal/mol/K)_298.15K_1.00E+00atm> (1)
80.0471843725061

>  <r_j_Enthalpy_(kcal/mol)_298.15K_1.00E+00atm> (1)
4.50686395684255

>  <r_j_Free_Energy_(kcal/mol)_298.15K_1.00E+00atm> (1)
-19.3592040638202

>  <r_j_Internal_Energy_(kcal/mol)_298.15K_1.00E+00atm> (1)
3.91437836801527

>  <r_j_Heat_Capacity_(cal/mol/K)_298.15K_1.00E+00atm> (1)
25.4101624551784

>  <r_j_ln(Q)_298.15K_1.00E+00atm> (1)
32.6745568649837

>  <r_j_Total_Internal_Energy_(au)_298.15K_1.00E+00atm> (1)
-722.731957314067

>  <r_j_Total_Enthalpy_(au)_298.15K_1.00E+00atm> (1)
-722.731013128174

>  <r_j_Total_Free_Energy_(au)_298.15K_1.00E+00atm> (1)
-722.769046128729

>  <r_lp_tautomer_probability> (1)
1

>  <r_epik_Ionization_Penalty> (1)
  0.0000

>  <r_epik_Ionization_Penalty_Charging> (1)
  0.0000

>  <r_epik_Ionization_Penalty_Neutral> (1)
  0.0000

>  <r_epik_State_Penalty> (1)
  0.0000

>  <r_epik_Charging_Adjusted_Penalty> (1)
0

>  <i_epik_Tot_Q> (1)
0

>  <i_epik_Tot_abs_Q> (1)
0

>  <s_lp_Force_Field> (1)
S-OPLS

>  <r_lp_Energy> (1)
9.43553

>  <b_lp_Chiralities_Consistent> (1)
1

$$$$
