7239_O-dichlorobenzene
                    3D
 Schrodinger Suite 2021-3.
 12 12  0  0  1  0            999 V2000
    0.0966    1.2712   -1.1636 C   0  0  0  0  0  0
    1.2923    1.9840   -1.0774 C   0  0  0  0  0  0
    2.4020    1.4104   -0.4621 C   0  0  0  0  0  0
    2.3238    0.1217    0.0705 C   0  0  0  0  0  0
    1.1220   -0.5947   -0.0160 C   0  0  0  0  0  0
    0.0124   -0.0140   -0.6344 C   0  0  0  0  0  0
    0.9677   -2.2123    0.6343 Cl  0  0  0  0  0  0
    3.7451   -0.5569    0.8340 Cl  0  0  0  0  0  0
   -0.7729    1.7111   -1.6416 H   0  0  0  0  0  0
    1.3661    2.9862   -1.4874 H   0  0  0  0  0  0
    3.3384    1.9520   -0.3874 H   0  0  0  0  0  0
   -0.9101   -0.5806   -0.6936 H   0  0  0  0  0  0
  1  6  1  0  0  0
  1  2  2  0  0  0
  1  9  1  0  0  0
  2  3  1  0  0  0
  2 10  1  0  0  0
  3  4  2  0  0  0
  3 11  1  0  0  0
  4  5  1  0  0  0
  4  8  1  0  0  0
  5  6  2  0  0  0
  5  7  1  0  0  0
  6 12  1  0  0  0
M  END
>  <i_m_Spin_multiplicity> (1)
1

>  <s_j_Task> (1)
Single Point

>  <s_j_QM_Method> (1)
DFT(b3lyp-d3)

>  <s_j_QM_Basis> (1)
cc-pvtz(-f)

>  <i_j_Number_of_canonical_orbitals> (1)
224

>  <i_j_Geometry_convergence_category> (1)
0

>  <r_j_Gas_Phase_Energy> (1)
-1151.5878846646

>  <r_j_Final_Energy> (1)
-1151.5878846646

>  <r_j_HOMO> (1)
-0.256737427357927

>  <r_j_LUMO> (1)
-0.0332893696811508

>  <r_j_Polarizability> (1)
88.5985622148694

>  <r_j_QM_Dipole_(debye)> (1)
2.55936007694413

>  <r_j_QM_Dipole_X_(debye)> (1)
-1.08852782304836

>  <r_j_QM_Dipole_Y_(debye)> (1)
1.97240319637235

>  <r_j_QM_Dipole_Z_(debye)> (1)
-1.21451916940212

>  <r_j_Lowest_Frequency_(cm-1)> (1)
149.494404934133

>  <r_j_Highest_Frequency_(cm-1)> (1)
3165.74711677186

>  <r_j_2nd_Lowest_Frequency_(cm-1)> (1)
200.387191979016

>  <i_j_Num_Negative_Frequencies> (1)
0

>  <r_j_Zero_Point_Energy_(kcal/mol)> (1)
50.8425504152654

>  <r_j_Entropy_(cal/mol/K)_298.15K_1.00E+00atm> (1)
82.7657651929172

>  <r_j_Enthalpy_(kcal/mol)_298.15K_1.00E+00atm> (1)
4.71878457407089

>  <r_j_Free_Energy_(kcal/mol)_298.15K_1.00E+00atm> (1)
-19.9578283181974

>  <r_j_Internal_Energy_(kcal/mol)_298.15K_1.00E+00atm> (1)
4.12629898524362

>  <r_j_Heat_Capacity_(cal/mol/K)_298.15K_1.00E+00atm> (1)
24.5592271423936

>  <r_j_ln(Q)_298.15K_1.00E+00atm> (1)
33.6849177339495

>  <r_j_Total_Internal_Energy_(au)_298.15K_1.00E+00atm> (1)
-1151.50028622661

>  <r_j_Total_Enthalpy_(au)_298.15K_1.00E+00atm> (1)
-1151.49934204071

>  <r_j_Total_Free_Energy_(au)_298.15K_1.00E+00atm> (1)
-1151.53866672675

>  <r_lp_tautomer_probability> (1)
1

>  <r_epik_Ionization_Penalty> (1)
  0.0000

>  <r_epik_Ionization_Penalty_Charging> (1)
  0.0000

>  <r_epik_Ionization_Penalty_Neutral> (1)
  0.0000

>  <r_epik_State_Penalty> (1)
  0.0000

>  <r_epik_Charging_Adjusted_Penalty> (1)
0

>  <i_epik_Tot_Q> (1)
0

>  <i_epik_Tot_abs_Q> (1)
0

>  <s_lp_Force_Field> (1)
S-OPLS

>  <r_lp_Energy> (1)
10.5016

>  <b_lp_Chiralities_Consistent> (1)
1

$$$$
