723_Maleic acid
                    3D
 Schrodinger Suite 2021-3.
 10  9  0  0  1  0            999 V2000
    0.0477    0.0309    0.0000 C   0  0  0  0  0  0
   -0.7398    1.1171    0.0000 C   0  0  0  0  0  0
   -2.2772    1.1301    0.0000 C   0  0  0  0  0  0
   -2.8011    2.2863    0.0000 O   0  0  0  0  0  0
   -2.8794    0.0182    0.0000 O   0  5  0  0  0  0
    1.5851    0.0180    0.0000 C   0  0  0  0  0  0
    2.1090   -1.1382    0.0000 O   0  0  0  0  0  0
    2.1873    1.1299    0.0000 O   0  5  0  0  0  0
   -0.4381   -0.9466    0.0000 H   0  0  0  0  0  0
   -0.2540    2.0947    0.0000 H   0  0  0  0  0  0
  1  2  2  0  0  0
  1  6  1  0  0  0
  1  9  1  0  0  0
  2  3  1  0  0  0
  2 10  1  0  0  0
  3  4  2  0  0  0
  3  5  1  0  0  0
  6  7  2  0  0  0
  6  8  1  0  0  0
M  END
>  <i_m_Spin_multiplicity> (1)
1

>  <s_j_Task> (1)
Single Point

>  <s_j_QM_Method> (1)
DFT(b3lyp-d3)

>  <s_j_QM_Basis> (1)
cc-pvtz(-f)

>  <i_j_Number_of_canonical_orbitals> (1)
201

>  <i_j_Geometry_convergence_category> (1)
0

>  <r_j_Gas_Phase_Energy> (1)
-454.676772110753

>  <r_j_Final_Energy> (1)
-454.676772110753

>  <r_j_HOMO> (1)
0.0962605882376253

>  <r_j_LUMO> (1)
0.278486697492431

>  <r_j_Polarizability> (1)
64.8848602935293

>  <r_j_QM_Dipole_(debye)> (1)
0.000171711961668562

>  <r_j_QM_Dipole_X_(debye)> (1)
0.000167278957998344

>  <r_j_QM_Dipole_Y_(debye)> (1)
3.87651898938908e-05

>  <r_j_QM_Dipole_Z_(debye)> (1)
8.96858109303359e-08

>  <r_j_Lowest_Frequency_(cm-1)> (1)
82.3663766884368

>  <r_j_Highest_Frequency_(cm-1)> (1)
3072.94477982656

>  <r_j_2nd_Lowest_Frequency_(cm-1)> (1)
151.836975996204

>  <i_j_Num_Negative_Frequencies> (1)
0

>  <r_j_Zero_Point_Energy_(kcal/mol)> (1)
35.2386772857813

>  <r_j_Entropy_(cal/mol/K)_298.15K_1.00E+00atm> (1)
83.2372735084159

>  <r_j_Enthalpy_(kcal/mol)_298.15K_1.00E+00atm> (1)
5.01605758873582

>  <r_j_Free_Energy_(kcal/mol)_298.15K_1.00E+00atm> (1)
-19.8011355077984

>  <r_j_Internal_Energy_(kcal/mol)_298.15K_1.00E+00atm> (1)
4.42357199990855

>  <r_j_Heat_Capacity_(cal/mol/K)_298.15K_1.00E+00atm> (1)
23.5743969416686

>  <r_j_ln(Q)_298.15K_1.00E+00atm> (1)
33.4204508619212

>  <r_j_Total_Internal_Energy_(au)_298.15K_1.00E+00atm> (1)
-454.613566292862

>  <r_j_Total_Enthalpy_(au)_298.15K_1.00E+00atm> (1)
-454.61262210697

>  <r_j_Total_Free_Energy_(au)_298.15K_1.00E+00atm> (1)
-454.652170821823

>  <r_lp_tautomer_probability> (1)
1

>  <r_epik_Ionization_Penalty> (1)
  0.0020

>  <r_epik_Ionization_Penalty_Charging> (1)
  0.0020

>  <r_epik_Ionization_Penalty_Neutral> (1)
  0.0000

>  <r_epik_State_Penalty> (1)
  0.0000

>  <r_epik_Charging_Adjusted_Penalty> (1)
0.00200435

>  <i_epik_Tot_Q> (1)
-2

>  <i_epik_Tot_abs_Q> (1)
2

>  <s_lp_Force_Field> (1)
S-OPLS

>  <r_lp_Energy> (1)
14.272

>  <b_lp_Chiralities_Consistent> (1)
1

$$$$
