7245_2-Chlorophenol
                    3D
 Schrodinger Suite 2021-3.
 13 13  0  0  1  0            999 V2000
   -2.0970   -1.1965    0.0000 C   0  0  0  0  0  0
   -2.7890    0.0138    0.0000 C   0  0  0  0  0  0
   -2.0781    1.2139    0.0000 C   0  0  0  0  0  0
   -0.6856    1.2051    0.0000 C   0  0  0  0  0  0
    0.0198   -0.0087    0.0000 C   0  0  0  0  0  0
   -0.7040   -1.2068    0.0000 C   0  0  0  0  0  0
    1.3796    0.0312    0.0000 O   0  0  0  0  0  0
    0.1956    2.7208    0.0000 Cl  0  0  0  0  0  0
   -2.6383   -2.1375    0.0000 H   0  0  0  0  0  0
   -3.8739    0.0295    0.0000 H   0  0  0  0  0  0
   -2.5950    2.1673    0.0000 H   0  0  0  0  0  0
   -0.1615   -2.1499    0.0000 H   0  0  0  0  0  0
    1.7215   -0.8725    0.0000 H   0  0  0  0  0  0
  1  6  1  0  0  0
  1  2  2  0  0  0
  1  9  1  0  0  0
  2  3  1  0  0  0
  2 10  1  0  0  0
  3  4  2  0  0  0
  3 11  1  0  0  0
  4  5  1  0  0  0
  4  8  1  0  0  0
  5  6  2  0  0  0
  5  7  1  0  0  0
  6 12  1  0  0  0
  7 13  1  0  0  0
M  END
>  <i_m_Spin_multiplicity> (1)
1

>  <s_j_Task> (1)
Single Point

>  <s_j_QM_Method> (1)
DFT(b3lyp-d3)

>  <s_j_QM_Basis> (1)
cc-pvtz(-f)

>  <i_j_Number_of_canonical_orbitals> (1)
229

>  <i_j_Geometry_convergence_category> (1)
0

>  <r_j_Gas_Phase_Energy> (1)
-767.209135636837

>  <r_j_Final_Energy> (1)
-767.209135636837

>  <r_j_HOMO> (1)
-0.234232988061919

>  <r_j_LUMO> (1)
-0.0255854074665805

>  <r_j_Polarizability> (1)
81.0920472302204

>  <r_j_QM_Dipole_(debye)> (1)
2.82275224911331

>  <r_j_QM_Dipole_X_(debye)> (1)
-0.598022402050327

>  <r_j_QM_Dipole_Y_(debye)> (1)
-2.75867712255401

>  <r_j_QM_Dipole_Z_(debye)> (1)
4.16327775964682e-06

>  <r_j_Lowest_Frequency_(cm-1)> (1)
164.798688855869

>  <r_j_Highest_Frequency_(cm-1)> (1)
3771.10164652205

>  <r_j_2nd_Lowest_Frequency_(cm-1)> (1)
244.521768621316

>  <i_j_Num_Negative_Frequencies> (1)
0

>  <r_j_Zero_Point_Energy_(kcal/mol)> (1)
59.509978487481

>  <r_j_Entropy_(cal/mol/K)_298.15K_1.00E+00atm> (1)
81.077909190527

>  <r_j_Enthalpy_(kcal/mol)_298.15K_1.00E+00atm> (1)
4.69032340412836

>  <r_j_Free_Energy_(kcal/mol)_298.15K_1.00E+00atm> (1)
-19.4830552210273

>  <r_j_Internal_Energy_(kcal/mol)_298.15K_1.00E+00atm> (1)
4.09783781530109

>  <r_j_Heat_Capacity_(cal/mol/K)_298.15K_1.00E+00atm> (1)
25.2653128600402

>  <r_j_ln(Q)_298.15K_1.00E+00atm> (1)
32.8835934382652

>  <r_j_Total_Internal_Energy_(au)_298.15K_1.00E+00atm> (1)
-767.107770128675

>  <r_j_Total_Enthalpy_(au)_298.15K_1.00E+00atm> (1)
-767.106825942783

>  <r_j_Total_Free_Energy_(au)_298.15K_1.00E+00atm> (1)
-767.145348673962

>  <r_lp_tautomer_probability> (1)
0.999999999997365

>  <r_epik_Ionization_Penalty> (1)
  0.0228

>  <r_epik_Ionization_Penalty_Charging> (1)
  0.0000

>  <r_epik_Ionization_Penalty_Neutral> (1)
  0.0228

>  <r_epik_State_Penalty> (1)
  0.0184

>  <r_epik_Charging_Adjusted_Penalty> (1)
0.0184327371370968

>  <i_epik_Tot_Q> (1)
0

>  <i_epik_Tot_abs_Q> (1)
0

>  <s_lp_Force_Field> (1)
S-OPLS

>  <r_lp_Energy> (1)
10.057273

>  <b_lp_Chiralities_Consistent> (1)
1

$$$$
