7269_1,2,4,5-tetramethylbenzene
                    3D
 Schrodinger Suite 2021-3.
 24 24  0  0  1  0            999 V2000
   -0.0252    0.0239    0.0000 C   0  0  0  0  0  0
    1.4847   -0.0015    0.0000 C   0  0  0  0  0  0
    2.2172    1.1855    0.0000 C   0  0  0  0  0  0
    3.6173    1.2182   -0.0001 C   0  0  0  0  0  0
    4.3172   -0.0002    0.0000 C   0  0  0  0  0  0
    3.5808   -1.1917    0.0001 C   0  0  0  0  0  0
    2.1861   -1.2234    0.0001 C   0  0  0  0  0  0
    1.4472   -2.5398    0.0000 C   0  0  0  0  0  0
    5.8293   -0.0573    0.0000 C   0  0  0  0  0  0
    4.3100    2.5644   -0.0001 C   0  0  0  0  0  0
   -0.4069    1.0485    0.0002 H   0  0  0  0  0  0
   -0.4372   -0.4870    0.8791 H   0  0  0  0  0  0
   -0.4371   -0.4865   -0.8795 H   0  0  0  0  0  0
    1.6772    2.1313   -0.0001 H   0  0  0  0  0  0
    4.1215   -2.1363    0.0001 H   0  0  0  0  0  0
    2.1406   -3.3850   -0.0001 H   0  0  0  0  0  0
    0.7989   -2.6387   -0.8792 H   0  0  0  0  0  0
    0.7989   -2.6388    0.8792 H   0  0  0  0  0  0
    6.1814   -1.0927   -0.0001 H   0  0  0  0  0  0
    6.2558    0.4356    0.8814 H   0  0  0  0  0  0
    6.2558    0.4359   -0.8812 H   0  0  0  0  0  0
    5.3981    2.4822   -0.0005 H   0  0  0  0  0  0
    4.0240    3.1511    0.8807 H   0  0  0  0  0  0
    4.0235    3.1513   -0.8807 H   0  0  0  0  0  0
  1  2  1  0  0  0
  1 11  1  0  0  0
  1 12  1  0  0  0
  1 13  1  0  0  0
  2  7  1  0  0  0
  2  3  2  0  0  0
  3  4  1  0  0  0
  3 14  1  0  0  0
  4  5  2  0  0  0
  4 10  1  0  0  0
  5  6  1  0  0  0
  5  9  1  0  0  0
  6  7  2  0  0  0
  6 15  1  0  0  0
  7  8  1  0  0  0
  8 16  1  0  0  0
  8 17  1  0  0  0
  8 18  1  0  0  0
  9 19  1  0  0  0
  9 20  1  0  0  0
  9 21  1  0  0  0
 10 22  1  0  0  0
 10 23  1  0  0  0
 10 24  1  0  0  0
M  END
>  <i_m_Spin_multiplicity> (1)
1

>  <s_j_Task> (1)
Single Point

>  <s_j_QM_Method> (1)
DFT(b3lyp-d3)

>  <s_j_QM_Basis> (1)
cc-pvtz(-f)

>  <i_j_Number_of_canonical_orbitals> (1)
348

>  <i_j_Geometry_convergence_category> (1)
0

>  <r_j_Gas_Phase_Energy> (1)
-389.658699408424

>  <r_j_Final_Energy> (1)
-389.658699408424

>  <r_j_HOMO> (1)
-0.223632622738054

>  <r_j_LUMO> (1)
-0.00336233618863117

>  <r_j_Polarizability> (1)
117.321649398055

>  <r_j_QM_Dipole_(debye)> (1)
0.0644937229920826

>  <r_j_QM_Dipole_X_(debye)> (1)
-0.043236032976748

>  <r_j_QM_Dipole_Y_(debye)> (1)
0.0478547021455386

>  <r_j_QM_Dipole_Z_(debye)> (1)
-0.000115066827615849

>  <r_j_Lowest_Frequency_(cm-1)> (1)
121.174197488329

>  <r_j_Highest_Frequency_(cm-1)> (1)
3102.26675304894

>  <r_j_2nd_Lowest_Frequency_(cm-1)> (1)
128.254617031737

>  <i_j_Num_Negative_Frequencies> (1)
0

>  <r_j_Zero_Point_Energy_(kcal/mol)> (1)
131.982979647791

>  <r_j_Entropy_(cal/mol/K)_298.15K_1.00E+00atm> (1)
96.087810295936

>  <r_j_Enthalpy_(kcal/mol)_298.15K_1.00E+00atm> (1)
7.03422834582978

>  <r_j_Free_Energy_(kcal/mol)_298.15K_1.00E+00atm> (1)
-21.6143522939035

>  <r_j_Internal_Energy_(kcal/mol)_298.15K_1.00E+00atm> (1)
6.4417427570025

>  <r_j_Heat_Capacity_(cal/mol/K)_298.15K_1.00E+00atm> (1)
40.2637212578504

>  <r_j_ln(Q)_298.15K_1.00E+00atm> (1)
36.4808067934369

>  <r_j_Total_Internal_Energy_(au)_298.15K_1.00E+00atm> (1)
-389.438105570366

>  <r_j_Total_Enthalpy_(au)_298.15K_1.00E+00atm> (1)
-389.437161384474

>  <r_j_Total_Free_Energy_(au)_298.15K_1.00E+00atm> (1)
-389.482815804063

>  <r_lp_tautomer_probability> (1)
1

>  <r_epik_Ionization_Penalty> (1)
  0.0000

>  <r_epik_Ionization_Penalty_Charging> (1)
  0.0000

>  <r_epik_Ionization_Penalty_Neutral> (1)
  0.0000

>  <r_epik_State_Penalty> (1)
  0.0000

>  <r_epik_Charging_Adjusted_Penalty> (1)
0

>  <i_epik_Tot_Q> (1)
0

>  <i_epik_Tot_abs_Q> (1)
0

>  <s_lp_Force_Field> (1)
S-OPLS

>  <r_lp_Energy> (1)
3.43054

>  <b_lp_Chiralities_Consistent> (1)
1

$$$$
