7276_Styrene oxide
                    3D
 Schrodinger Suite 2021-3.
 17 18  0  0  1  0            999 V2000
   -0.7872    0.9111   -0.7290 C   0  0  0  0  0  0
    0.0281   -0.2632   -0.3559 C   0  0  0  0  0  0
   -0.7761    0.4229    0.6161 O   0  0  0  0  0  0
    1.5099   -0.1731   -0.2085 C   0  0  0  0  0  0
    2.0879    0.8096    0.6037 C   0  0  0  0  0  0
    3.4738    0.9077    0.7070 C   0  0  0  0  0  0
    4.2961    0.0260    0.0024 C   0  0  0  0  0  0
    3.7243   -0.9606   -0.8017 C   0  0  0  0  0  0
    2.3369   -1.0624   -0.9029 C   0  0  0  0  0  0
   -1.7225    0.7759   -1.2733 H   0  0  0  0  0  0
   -0.2829    1.8652   -0.8853 H   0  0  0  0  0  0
   -0.3528   -1.2466   -0.6390 H   0  0  0  0  0  0
    1.4375    1.4748    1.1630 H   0  0  0  0  0  0
    3.9144    1.6695    1.3438 H   0  0  0  0  0  0
    5.3763    0.1031    0.0853 H   0  0  0  0  0  0
    4.3579   -1.6546   -1.3463 H   0  0  0  0  0  0
    1.8937   -1.8359   -1.5258 H   0  0  0  0  0  0
  1  3  1  0  0  0
  1  2  1  0  0  0
  1 10  1  0  0  0
  1 11  1  0  0  0
  2  3  1  0  0  0
  2  4  1  0  0  0
  2 12  1  0  0  0
  4  9  1  0  0  0
  4  5  2  0  0  0
  5  6  1  0  0  0
  5 13  1  0  0  0
  6  7  2  0  0  0
  6 14  1  0  0  0
  7  8  1  0  0  0
  7 15  1  0  0  0
  8  9  2  0  0  0
  8 16  1  0  0  0
  9 17  1  0  0  0
M  END
>  <i_m_Spin_multiplicity> (1)
1

>  <s_j_Task> (1)
Single Point

>  <s_j_QM_Method> (1)
DFT(b3lyp-d3)

>  <s_j_QM_Basis> (1)
cc-pvtz(-f)

>  <i_j_Number_of_canonical_orbitals> (1)
273

>  <i_j_Geometry_convergence_category> (1)
3

>  <r_j_Gas_Phase_Energy> (1)
-384.981472794747

>  <r_j_Final_Energy> (1)
-384.981472794747

>  <r_j_HOMO> (1)
-0.246773041514228

>  <r_j_LUMO> (1)
-0.0203769011108521

>  <r_j_Polarizability> (1)
89.5783176622936

>  <r_j_QM_Dipole_(debye)> (1)
1.74553674687367

>  <r_j_QM_Dipole_X_(debye)> (1)
0.580958085187106

>  <r_j_QM_Dipole_Y_(debye)> (1)
-0.0482310954255944

>  <r_j_QM_Dipole_Z_(debye)> (1)
-1.64531455940075

>  <r_j_Lowest_Frequency_(cm-1)> (1)
96.1018384229652

>  <r_j_Highest_Frequency_(cm-1)> (1)
3151.87526648485

>  <r_j_2nd_Lowest_Frequency_(cm-1)> (1)
167.835648516849

>  <i_j_Num_Negative_Frequencies> (1)
0

>  <r_j_Zero_Point_Energy_(kcal/mol)> (1)
86.6122791186822

>  <r_j_Entropy_(cal/mol/K)_298.15K_1.00E+00atm> (1)
83.4014026618785

>  <r_j_Enthalpy_(kcal/mol)_298.15K_1.00E+00atm> (1)
4.99980466388104

>  <r_j_Free_Energy_(kcal/mol)_298.15K_1.00E+00atm> (1)
-19.866323539758

>  <r_j_Internal_Energy_(kcal/mol)_298.15K_1.00E+00atm> (1)
4.40731907505377

>  <r_j_Heat_Capacity_(cal/mol/K)_298.15K_1.00E+00atm> (1)
27.6275486797816

>  <r_j_ln(Q)_298.15K_1.00E+00atm> (1)
33.5304755328818

>  <r_j_Total_Internal_Energy_(au)_298.15K_1.00E+00atm> (1)
-384.836423831273

>  <r_j_Total_Enthalpy_(au)_298.15K_1.00E+00atm> (1)
-384.83547964538

>  <r_j_Total_Free_Energy_(au)_298.15K_1.00E+00atm> (1)
-384.875106343291

>  <r_lp_tautomer_probability> (1)
1

>  <r_epik_Ionization_Penalty> (1)
  0.0000

>  <r_epik_Ionization_Penalty_Charging> (1)
  0.0000

>  <r_epik_Ionization_Penalty_Neutral> (1)
  0.0000

>  <r_epik_State_Penalty> (1)
  0.0000

>  <r_epik_Charging_Adjusted_Penalty> (1)
0

>  <i_epik_Tot_Q> (1)
0

>  <i_epik_Tot_abs_Q> (1)
0

>  <s_lp_Force_Field> (1)
S-OPLS

>  <r_lp_Energy> (1)
14.070075

>  <b_lp_Chiralities_Consistent> (1)
1

$$$$
