727_Lindane
                    3D
 Schrodinger Suite 2021-3.
 18 18  0  0  1  0            999 V2000
    0.0148   -1.2614   -0.8228 C   0  0  0  0  0  0
   -0.6317   -1.3048    0.5778 C   0  0  0  0  0  0
   -1.4446   -0.0139    0.7758 C   0  0  0  0  0  0
   -0.6751    1.2977    0.5436 C   0  0  0  0  0  0
   -0.0272    1.2390   -0.8557 C   0  0  0  0  0  0
    0.8714    0.0008   -1.0473 C   0  0  0  0  0  0
    1.5425   -0.0099   -2.7256 Cl  0  0  0  0  0  0
    0.8222    2.7870   -1.2214 Cl  0  0  0  0  0  0
    0.5177    1.6950    1.8393 Cl  0  0  0  0  0  0
   -2.3609   -0.0089    2.3257 Cl  0  0  0  0  0  0
    0.5729   -1.6280    1.8831 Cl  0  0  0  0  0  0
    0.9161   -2.7891   -1.1473 Cl  0  0  0  0  0  0
   -0.7983   -1.2540   -1.5561 H   0  0  0  0  0  0
   -1.3187   -2.1513    0.6119 H   0  0  0  0  0  0
   -2.2205   -0.0371    0.0013 H   0  0  0  0  0  0
   -1.3900    2.1214    0.5559 H   0  0  0  0  0  0
   -0.8394    1.1848   -1.5881 H   0  0  0  0  0  0
    1.7167    0.0242   -0.3581 H   0  0  0  0  0  0
  1  6  1  0  0  0
  1  2  1  0  0  0
  1 12  1  0  0  0
  1 13  1  0  0  0
  2  3  1  0  0  0
  2 11  1  0  0  0
  2 14  1  0  0  0
  3  4  1  0  0  0
  3 10  1  0  0  0
  3 15  1  0  0  0
  4  5  1  0  0  0
  4  9  1  0  0  0
  4 16  1  0  0  0
  5  6  1  0  0  0
  5  8  1  0  0  0
  5 17  1  0  0  0
  6  7  1  0  0  0
  6 18  1  0  0  0
M  END
>  <i_m_Spin_multiplicity> (1)
1

>  <s_j_Task> (1)
Single Point

>  <s_j_QM_Method> (1)
DFT(b3lyp-d3)

>  <s_j_QM_Basis> (1)
cc-pvtz(-f)

>  <i_j_Number_of_canonical_orbitals> (1)
351

>  <i_j_Geometry_convergence_category> (1)
3

>  <r_j_Gas_Phase_Energy> (1)
-2993.7383542813

>  <r_j_Final_Energy> (1)
-2993.7383542813

>  <r_j_HOMO> (1)
-0.297661535702934

>  <r_j_LUMO> (1)
-0.0578908279289244

>  <r_j_Polarizability> (1)
136.171435894943

>  <r_j_QM_Dipole_(debye)> (1)
3.3207216265197

>  <r_j_QM_Dipole_X_(debye)> (1)
-3.07871989972869

>  <r_j_QM_Dipole_Y_(debye)> (1)
-0.0679594122594139

>  <r_j_QM_Dipole_Z_(debye)> (1)
-1.24260106958573

>  <r_j_Lowest_Frequency_(cm-1)> (1)
66.3365078859849

>  <r_j_Highest_Frequency_(cm-1)> (1)
3081.4164344153

>  <r_j_2nd_Lowest_Frequency_(cm-1)> (1)
66.9555800905934

>  <i_j_Num_Negative_Frequencies> (1)
0

>  <r_j_Zero_Point_Energy_(kcal/mol)> (1)
71.2970739782436

>  <r_j_Entropy_(cal/mol/K)_298.15K_1.00E+00atm> (1)
111.401648720474

>  <r_j_Enthalpy_(kcal/mol)_298.15K_1.00E+00atm> (1)
8.29029950889155

>  <r_j_Free_Energy_(kcal/mol)_298.15K_1.00E+00atm> (1)
-24.9241020571178

>  <r_j_Internal_Energy_(kcal/mol)_298.15K_1.00E+00atm> (1)
7.69781392006427

>  <r_j_Heat_Capacity_(cal/mol/K)_298.15K_1.00E+00atm> (1)
43.9463600205096

>  <r_j_ln(Q)_298.15K_1.00E+00atm> (1)
42.0670182146555

>  <r_j_Total_Internal_Energy_(au)_298.15K_1.00E+00atm> (1)
-2993.61246791357

>  <r_j_Total_Enthalpy_(au)_298.15K_1.00E+00atm> (1)
-2993.61152372768

>  <r_j_Total_Free_Energy_(au)_298.15K_1.00E+00atm> (1)
-2993.6644542461

>  <r_lp_tautomer_probability> (1)
1

>  <r_epik_Ionization_Penalty> (1)
  0.0000

>  <r_epik_Ionization_Penalty_Charging> (1)
  0.0000

>  <r_epik_Ionization_Penalty_Neutral> (1)
  0.0000

>  <r_epik_State_Penalty> (1)
  0.0000

>  <r_epik_Charging_Adjusted_Penalty> (1)
0

>  <i_epik_Tot_Q> (1)
0

>  <i_epik_Tot_abs_Q> (1)
0

>  <s_lp_Force_Field> (1)
S-OPLS

>  <r_lp_Energy> (1)
6.24909

>  <b_lp_Chiralities_Consistent> (1)
1

$$$$
