7292_Methyl ethyl ketoxime
                    3D
 Schrodinger Suite 2021-3.
 15 14  0  0  1  0            999 V2000
   -0.5191    1.3729   -0.1611 C   0  0  0  0  0  0
    0.0594   -0.0122    0.1749 C   0  0  0  0  0  0
    1.5637   -0.0509    0.0734 C   0  0  0  0  0  0
    2.2036   -0.2245    1.1711 N   0  0  0  0  0  0
    3.6025   -0.2180    0.9524 O   0  0  0  0  0  0
    2.2335    0.1294   -1.2637 C   0  0  0  0  0  0
   -1.6118    1.3616   -0.1005 H   0  0  0  0  0  0
   -0.2448    1.6899   -1.1728 H   0  0  0  0  0  0
   -0.1457    2.1262    0.5395 H   0  0  0  0  0  0
   -0.2288   -0.3043    1.1890 H   0  0  0  0  0  0
   -0.3599   -0.7581   -0.5145 H   0  0  0  0  0  0
    3.9406   -0.3747    1.8436 H   0  0  0  0  0  0
    1.5031    0.1765   -2.0743 H   0  0  0  0  0  0
    2.9289   -0.6954   -1.4483 H   0  0  0  0  0  0
    2.8325    1.0464   -1.2705 H   0  0  0  0  0  0
  1  2  1  0  0  0
  1  7  1  0  0  0
  1  8  1  0  0  0
  1  9  1  0  0  0
  2  3  1  0  0  0
  2 10  1  0  0  0
  2 11  1  0  0  0
  3  4  2  0  0  0
  3  6  1  0  0  0
  4  5  1  0  0  0
  5 12  1  0  0  0
  6 13  1  0  0  0
  6 14  1  0  0  0
  6 15  1  0  0  0
M  END
>  <i_m_Spin_multiplicity> (1)
1

>  <s_j_Task> (1)
Single Point

>  <s_j_QM_Method> (1)
DFT(b3lyp-d3)

>  <s_j_QM_Basis> (1)
cc-pvtz(-f)

>  <i_j_Number_of_canonical_orbitals> (1)
219

>  <i_j_Geometry_convergence_category> (1)
3

>  <r_j_Gas_Phase_Energy> (1)
-287.883766502394

>  <r_j_Final_Energy> (1)
-287.883766502394

>  <r_j_HOMO> (1)
-0.251638869815983

>  <r_j_LUMO> (1)
0.00275400676005175

>  <r_j_Polarizability> (1)
62.225543020661

>  <r_j_QM_Dipole_(debye)> (1)
0.80445617677244

>  <r_j_QM_Dipole_X_(debye)> (1)
-0.448115476564072

>  <r_j_QM_Dipole_Y_(debye)> (1)
0.148810110189846

>  <r_j_QM_Dipole_Z_(debye)> (1)
-0.651304699135797

>  <r_j_Lowest_Frequency_(cm-1)> (1)
118.263593693359

>  <r_j_Highest_Frequency_(cm-1)> (1)
3773.33080581519

>  <r_j_2nd_Lowest_Frequency_(cm-1)> (1)
192.147797007205

>  <i_j_Num_Negative_Frequencies> (1)
0

>  <r_j_Zero_Point_Energy_(kcal/mol)> (1)
81.2079722419526

>  <r_j_Entropy_(cal/mol/K)_298.15K_1.00E+00atm> (1)
80.8799029652975

>  <r_j_Enthalpy_(kcal/mol)_298.15K_1.00E+00atm> (1)
5.03856628431951

>  <r_j_Free_Energy_(kcal/mol)_298.15K_1.00E+00atm> (1)
-19.0757767847839

>  <r_j_Internal_Energy_(kcal/mol)_298.15K_1.00E+00atm> (1)
4.44608069549224

>  <r_j_Heat_Capacity_(cal/mol/K)_298.15K_1.00E+00atm> (1)
25.7565162971439

>  <r_j_ln(Q)_298.15K_1.00E+00atm> (1)
32.1961869529033

>  <r_j_Total_Internal_Energy_(au)_298.15K_1.00E+00atm> (1)
-287.747268079609

>  <r_j_Total_Enthalpy_(au)_298.15K_1.00E+00atm> (1)
-287.746323893717

>  <r_j_Total_Free_Energy_(au)_298.15K_1.00E+00atm> (1)
-287.784752545749

>  <r_lp_tautomer_probability> (1)
1

>  <r_epik_Ionization_Penalty> (1)
  0.0000

>  <r_epik_Ionization_Penalty_Charging> (1)
  0.0000

>  <r_epik_Ionization_Penalty_Neutral> (1)
  0.0000

>  <r_epik_State_Penalty> (1)
  0.0000

>  <r_epik_Charging_Adjusted_Penalty> (1)
0

>  <i_epik_Tot_Q> (1)
0

>  <i_epik_Tot_abs_Q> (1)
0

>  <s_lp_Force_Field> (1)
S-OPLS

>  <r_lp_Energy> (1)
5.200296

>  <b_lp_Chiralities_Consistent> (1)
1

>  <s_epik_Chemistry_Notes> (1)
This compound has an imine and may undergo hydrolysis.

$$$$
