7294_Methyl acrylate
                    3D
 Schrodinger Suite 2021-3.
 12 11  0  0  1  0            999 V2000
   -0.0703   -0.0055    0.0000 C   0  0  0  0  0  0
    1.3633   -0.1037    0.0000 O   0  0  0  0  0  0
    1.8498   -1.3680    0.0000 C   0  0  0  0  0  0
    1.1454   -2.3579    0.0000 O   0  0  0  0  0  0
    3.3349   -1.3570    0.0000 C   0  0  0  0  0  0
    4.0209   -2.5014    0.0000 C   0  0  0  0  0  0
   -0.2944    1.0611    0.0000 H   0  0  0  0  0  0
   -0.4891   -0.4874    0.8877 H   0  0  0  0  0  0
   -0.4892   -0.4874   -0.8876 H   0  0  0  0  0  0
    3.8191   -0.3855    0.0000 H   0  0  0  0  0  0
    3.4952   -3.4516    0.0000 H   0  0  0  0  0  0
    5.1058   -2.5171    0.0000 H   0  0  0  0  0  0
  1  2  1  0  0  0
  1  7  1  0  0  0
  1  8  1  0  0  0
  1  9  1  0  0  0
  2  3  1  0  0  0
  3  4  2  0  0  0
  3  5  1  0  0  0
  5  6  2  0  0  0
  5 10  1  0  0  0
  6 11  1  0  0  0
  6 12  1  0  0  0
M  END
>  <i_m_Spin_multiplicity> (1)
1

>  <s_j_Task> (1)
Single Point

>  <s_j_QM_Method> (1)
DFT(b3lyp-d3)

>  <s_j_QM_Basis> (1)
cc-pvtz(-f)

>  <i_j_Number_of_canonical_orbitals> (1)
191

>  <i_j_Geometry_convergence_category> (1)
3

>  <r_j_Gas_Phase_Energy> (1)
-306.585737297594

>  <r_j_Final_Energy> (1)
-306.585737297594

>  <r_j_HOMO> (1)
-0.293676426201925

>  <r_j_LUMO> (1)
-0.0677866412759774

>  <r_j_Polarizability> (1)
54.7016051756359

>  <r_j_QM_Dipole_(debye)> (1)
1.56300357884701

>  <r_j_QM_Dipole_X_(debye)> (1)
0.724516203784517

>  <r_j_QM_Dipole_Y_(debye)> (1)
1.38493915307821

>  <r_j_QM_Dipole_Z_(debye)> (1)
-1.46024703070314e-05

>  <r_j_Lowest_Frequency_(cm-1)> (1)
128.701026976908

>  <r_j_Highest_Frequency_(cm-1)> (1)
3199.34504236744

>  <r_j_2nd_Lowest_Frequency_(cm-1)> (1)
219.124206422735

>  <i_j_Num_Negative_Frequencies> (1)
0

>  <r_j_Zero_Point_Energy_(kcal/mol)> (1)
59.6405315540024

>  <r_j_Entropy_(cal/mol/K)_298.15K_1.00E+00atm> (1)
77.7024959916168

>  <r_j_Enthalpy_(kcal/mol)_298.15K_1.00E+00atm> (1)
4.53303761289319

>  <r_j_Free_Energy_(kcal/mol)_298.15K_1.00E+00atm> (1)
-18.6339615670074

>  <r_j_Internal_Energy_(kcal/mol)_298.15K_1.00E+00atm> (1)
3.94055202406592

>  <r_j_Heat_Capacity_(cal/mol/K)_298.15K_1.00E+00atm> (1)
21.7052971454126

>  <r_j_ln(Q)_298.15K_1.00E+00atm> (1)
31.4504891231028

>  <r_j_Total_Internal_Energy_(au)_298.15K_1.00E+00atm> (1)
-306.484414390741

>  <r_j_Total_Enthalpy_(au)_298.15K_1.00E+00atm> (1)
-306.483470204848

>  <r_j_Total_Free_Energy_(au)_298.15K_1.00E+00atm> (1)
-306.520389168286

>  <r_lp_tautomer_probability> (1)
1

>  <r_epik_Ionization_Penalty> (1)
  0.0000

>  <r_epik_Ionization_Penalty_Charging> (1)
  0.0000

>  <r_epik_Ionization_Penalty_Neutral> (1)
  0.0000

>  <r_epik_State_Penalty> (1)
  0.0000

>  <r_epik_Charging_Adjusted_Penalty> (1)
0

>  <i_epik_Tot_Q> (1)
0

>  <i_epik_Tot_abs_Q> (1)
0

>  <s_lp_Force_Field> (1)
S-OPLS

>  <r_lp_Energy> (1)
2.653405

>  <b_lp_Chiralities_Consistent> (1)
1

>  <s_epik_Chemistry_Notes> (1)
This compound has an ester and may undergo hydrolysis at high or low pH.

$$$$
