7296_Methylcyclopentane
                    3D
 Schrodinger Suite 2021-3.
 18 18  0  0  1  0            999 V2000
   -0.0290   -0.0925   -0.0224 C   0  0  0  0  0  0
    1.4944    0.0120   -0.0172 C   0  0  0  0  0  0
    2.0852    0.8137   -1.1925 C   0  0  0  0  0  0
    3.5319    1.1576   -0.7588 C   0  0  0  0  0  0
    3.5482    1.0299    0.7972 C   0  0  0  0  0  0
    2.0863    0.7446    1.1997 C   0  0  0  0  0  0
   -0.4848    0.9048    0.0064 H   0  0  0  0  0  0
   -0.3947   -0.6516    0.8458 H   0  0  0  0  0  0
   -0.3932   -0.5991   -0.9231 H   0  0  0  0  0  0
    1.9199   -1.0033   -0.0438 H   0  0  0  0  0  0
    2.0390    0.2724   -2.1435 H   0  0  0  0  0  0
    1.4981    1.7334   -1.3195 H   0  0  0  0  0  0
    4.2470    0.4596   -1.2066 H   0  0  0  0  0  0
    3.8238    2.1582   -1.0924 H   0  0  0  0  0  0
    4.1879    0.1931    1.0992 H   0  0  0  0  0  0
    3.9477    1.9229    1.2875 H   0  0  0  0  0  0
    1.5395    1.6868    1.3460 H   0  0  0  0  0  0
    1.9990    0.1734    2.1304 H   0  0  0  0  0  0
  1  2  1  0  0  0
  1  7  1  0  0  0
  1  8  1  0  0  0
  1  9  1  0  0  0
  2  6  1  0  0  0
  2  3  1  0  0  0
  2 10  1  0  0  0
  3  4  1  0  0  0
  3 11  1  0  0  0
  3 12  1  0  0  0
  4  5  1  0  0  0
  4 13  1  0  0  0
  4 14  1  0  0  0
  5  6  1  0  0  0
  5 15  1  0  0  0
  5 16  1  0  0  0
  6 17  1  0  0  0
  6 18  1  0  0  0
M  END
>  <i_m_Spin_multiplicity> (1)
1

>  <s_j_Task> (1)
Single Point

>  <s_j_QM_Method> (1)
DFT(b3lyp-d3)

>  <s_j_QM_Basis> (1)
cc-pvtz(-f)

>  <i_j_Number_of_canonical_orbitals> (1)
244

>  <i_j_Geometry_convergence_category> (1)
1

>  <r_j_Gas_Phase_Energy> (1)
-235.964524211081

>  <r_j_Final_Energy> (1)
-235.964524211081

>  <r_j_HOMO> (1)
-0.306774438773907

>  <r_j_LUMO> (1)
0.030486033671248

>  <r_j_Polarizability> (1)
69.7504054261798

>  <r_j_QM_Dipole_(debye)> (1)
0.0919992179483218

>  <r_j_QM_Dipole_X_(debye)> (1)
0.0343148499752799

>  <r_j_QM_Dipole_Y_(debye)> (1)
-0.0853034166642378

>  <r_j_QM_Dipole_Z_(debye)> (1)
0.00311035041181367

>  <r_j_Lowest_Frequency_(cm-1)> (1)
135.860141241453

>  <r_j_Highest_Frequency_(cm-1)> (1)
3048.03615011206

>  <r_j_2nd_Lowest_Frequency_(cm-1)> (1)
207.678271036385

>  <i_j_Num_Negative_Frequencies> (1)
0

>  <r_j_Zero_Point_Energy_(kcal/mol)> (1)
105.416660222485

>  <r_j_Entropy_(cal/mol/K)_298.15K_1.00E+00atm> (1)
76.9005108495835

>  <r_j_Enthalpy_(kcal/mol)_298.15K_1.00E+00atm> (1)
4.465758606235

>  <r_j_Free_Energy_(kcal/mol)_298.15K_1.00E+00atm> (1)
-18.4621287035683

>  <r_j_Internal_Energy_(kcal/mol)_298.15K_1.00E+00atm> (1)
3.87327301740772

>  <r_j_Heat_Capacity_(cal/mol/K)_298.15K_1.00E+00atm> (1)
23.7713274474374

>  <r_j_ln(Q)_298.15K_1.00E+00atm> (1)
31.1604687974116

>  <r_j_Total_Internal_Energy_(au)_298.15K_1.00E+00atm> (1)
-235.790359615223

>  <r_j_Total_Enthalpy_(au)_298.15K_1.00E+00atm> (1)
-235.78941542933

>  <r_j_Total_Free_Energy_(au)_298.15K_1.00E+00atm> (1)
-235.825953343746

>  <r_lp_tautomer_probability> (1)
1

>  <r_epik_Ionization_Penalty> (1)
  0.0000

>  <r_epik_Ionization_Penalty_Charging> (1)
  0.0000

>  <r_epik_Ionization_Penalty_Neutral> (1)
  0.0000

>  <r_epik_State_Penalty> (1)
  0.0000

>  <r_epik_Charging_Adjusted_Penalty> (1)
0

>  <i_epik_Tot_Q> (1)
0

>  <i_epik_Tot_abs_Q> (1)
0

>  <s_lp_Force_Field> (1)
S-OPLS

>  <r_lp_Energy> (1)
6.41189

>  <b_lp_Chiralities_Consistent> (1)
1

$$$$
