7298_Cyclopentanol
                    3D
 Schrodinger Suite 2021-3.
 16 16  0  0  1  0            999 V2000
   -1.9876   -1.2846   -0.7350 C   0  0  0  0  0  0
   -1.9931   -1.0412    0.8062 C   0  0  0  0  0  0
   -0.5290   -0.7355    1.1635 C   0  0  0  0  0  0
   -0.0186    0.0197   -0.0737 C   0  0  0  0  0  0
   -0.6067   -0.7872   -1.2378 C   0  0  0  0  0  0
    1.3961    0.0788   -0.2023 O   0  0  0  0  0  0
   -2.8105   -0.7472   -1.2163 H   0  0  0  0  0  0
   -2.1282   -2.3436   -0.9710 H   0  0  0  0  0  0
   -2.6200   -0.1746    1.0467 H   0  0  0  0  0  0
   -2.3971   -1.8883    1.3680 H   0  0  0  0  0  0
   -0.4162   -0.1714    2.0963 H   0  0  0  0  0  0
    0.0565   -1.6590    1.2560 H   0  0  0  0  0  0
   -0.4493    1.0368   -0.0751 H   0  0  0  0  0  0
    0.0722   -1.6282   -1.4190 H   0  0  0  0  0  0
   -0.6609   -0.2081   -2.1637 H   0  0  0  0  0  0
    1.7373    0.6064    0.5312 H   0  0  0  0  0  0
  1  5  1  0  0  0
  1  2  1  0  0  0
  1  7  1  0  0  0
  1  8  1  0  0  0
  2  3  1  0  0  0
  2  9  1  0  0  0
  2 10  1  0  0  0
  3  4  1  0  0  0
  3 11  1  0  0  0
  3 12  1  0  0  0
  4  5  1  0  0  0
  4  6  1  0  0  0
  4 13  1  0  0  0
  5 14  1  0  0  0
  5 15  1  0  0  0
  6 16  1  0  0  0
M  END
>  <i_m_Spin_multiplicity> (1)
1

>  <s_j_Task> (1)
Single Point

>  <s_j_QM_Method> (1)
DFT(b3lyp-d3)

>  <s_j_QM_Basis> (1)
cc-pvtz(-f)

>  <i_j_Number_of_canonical_orbitals> (1)
227

>  <i_j_Geometry_convergence_category> (1)
1

>  <r_j_Gas_Phase_Energy> (1)
-271.878875507695

>  <r_j_Final_Energy> (1)
-271.878875507695

>  <r_j_HOMO> (1)
-0.271570086094015

>  <r_j_LUMO> (1)
0.0238061230897576

>  <r_j_Polarizability> (1)
61.4525198995894

>  <r_j_QM_Dipole_(debye)> (1)
1.49303038993517

>  <r_j_QM_Dipole_X_(debye)> (1)
-0.80199923025469

>  <r_j_QM_Dipole_Y_(debye)> (1)
0.586878557720173

>  <r_j_QM_Dipole_Z_(debye)> (1)
1.11423091791116

>  <r_j_Lowest_Frequency_(cm-1)> (1)
132.180442311688

>  <r_j_Highest_Frequency_(cm-1)> (1)
3764.90755860485

>  <r_j_2nd_Lowest_Frequency_(cm-1)> (1)
209.950932979177

>  <i_j_Num_Negative_Frequencies> (1)
0

>  <r_j_Zero_Point_Energy_(kcal/mol)> (1)
90.7878420944039

>  <r_j_Entropy_(cal/mol/K)_298.15K_1.00E+00atm> (1)
76.0368143776165

>  <r_j_Enthalpy_(kcal/mol)_298.15K_1.00E+00atm> (1)
4.31057597088184

>  <r_j_Free_Energy_(kcal/mol)_298.15K_1.00E+00atm> (1)
-18.3598002358045

>  <r_j_Internal_Energy_(kcal/mol)_298.15K_1.00E+00atm> (1)
3.71809038205457

>  <r_j_Heat_Capacity_(cal/mol/K)_298.15K_1.00E+00atm> (1)
22.5646865844857

>  <r_j_ln(Q)_298.15K_1.00E+00atm> (1)
30.9877583219275

>  <r_j_Total_Internal_Energy_(au)_298.15K_1.00E+00atm> (1)
-271.72827071686

>  <r_j_Total_Enthalpy_(au)_298.15K_1.00E+00atm> (1)
-271.727326530968

>  <r_j_Total_Free_Energy_(au)_298.15K_1.00E+00atm> (1)
-271.763454075316

>  <r_lp_tautomer_probability> (1)
1

>  <r_epik_Ionization_Penalty> (1)
  0.0000

>  <r_epik_Ionization_Penalty_Charging> (1)
  0.0000

>  <r_epik_Ionization_Penalty_Neutral> (1)
  0.0000

>  <r_epik_State_Penalty> (1)
  0.0000

>  <r_epik_Charging_Adjusted_Penalty> (1)
0

>  <i_epik_Tot_Q> (1)
0

>  <i_epik_Tot_abs_Q> (1)
0

>  <s_lp_Force_Field> (1)
S-OPLS

>  <r_lp_Energy> (1)
8.902995

>  <b_lp_Chiralities_Consistent> (1)
1

$$$$
