7301_2-Methyltetrahydrofuran
                    3D
 Schrodinger Suite 2021-3.
 16 16  0  0  1  0            999 V2000
   -0.0455   -0.0246    0.0232 C   0  0  0  0  0  0
    1.4734   -0.0104    0.0796 C   0  0  0  0  0  0
    2.0833    0.6541    1.3199 C   0  0  0  0  0  0
    3.4473   -0.0429    1.4067 C   0  0  0  0  0  0
    3.0956   -1.4720    0.9617 C   0  0  0  0  0  0
    1.9479   -1.3670    0.1102 O   0  0  0  0  0  0
   -0.4394    0.9955   -0.0376 H   0  0  0  0  0  0
   -0.4513   -0.5073    0.9180 H   0  0  0  0  0  0
   -0.3910   -0.5811   -0.8526 H   0  0  0  0  0  0
    1.8677    0.4839   -0.8257 H   0  0  0  0  0  0
    2.1491    1.7419    1.2279 H   0  0  0  0  0  0
    1.4742    0.4212    2.2023 H   0  0  0  0  0  0
    4.1513    0.4161    0.7033 H   0  0  0  0  0  0
    3.8974   -0.0088    2.4027 H   0  0  0  0  0  0
    3.9131   -1.9585    0.4152 H   0  0  0  0  0  0
    2.8434   -2.1058    1.8246 H   0  0  0  0  0  0
  1  2  1  0  0  0
  1  7  1  0  0  0
  1  8  1  0  0  0
  1  9  1  0  0  0
  2  6  1  0  0  0
  2  3  1  0  0  0
  2 10  1  0  0  0
  3  4  1  0  0  0
  3 11  1  0  0  0
  3 12  1  0  0  0
  4  5  1  0  0  0
  4 13  1  0  0  0
  4 14  1  0  0  0
  5  6  1  0  0  0
  5 15  1  0  0  0
  5 16  1  0  0  0
M  END
>  <i_m_Spin_multiplicity> (1)
1

>  <s_j_Task> (1)
Single Point

>  <s_j_QM_Method> (1)
DFT(b3lyp-d3)

>  <s_j_QM_Basis> (1)
cc-pvtz(-f)

>  <i_j_Number_of_canonical_orbitals> (1)
227

>  <i_j_Geometry_convergence_category> (1)
3

>  <r_j_Gas_Phase_Energy> (1)
-271.875182556651

>  <r_j_Final_Energy> (1)
-271.875182556651

>  <r_j_HOMO> (1)
-0.254057371914381

>  <r_j_LUMO> (1)
0.0245707627360647

>  <r_j_Polarizability> (1)
62.2175746591782

>  <r_j_QM_Dipole_(debye)> (1)
1.62475706503454

>  <r_j_QM_Dipole_X_(debye)> (1)
0.601089552000949

>  <r_j_QM_Dipole_Y_(debye)> (1)
1.2627681133209

>  <r_j_QM_Dipole_Z_(debye)> (1)
0.827008804569179

>  <r_j_Lowest_Frequency_(cm-1)> (1)
97.2101226285429

>  <r_j_Highest_Frequency_(cm-1)> (1)
3066.02530348025

>  <r_j_2nd_Lowest_Frequency_(cm-1)> (1)
237.445744153598

>  <i_j_Num_Negative_Frequencies> (1)
0

>  <r_j_Zero_Point_Energy_(kcal/mol)> (1)
90.340320116342

>  <r_j_Entropy_(cal/mol/K)_298.15K_1.00E+00atm> (1)
76.5074905678313

>  <r_j_Enthalpy_(kcal/mol)_298.15K_1.00E+00atm> (1)
4.35038334775888

>  <r_j_Free_Energy_(kcal/mol)_298.15K_1.00E+00atm> (1)
-18.46032496504

>  <r_j_Internal_Energy_(kcal/mol)_298.15K_1.00E+00atm> (1)
3.7578977589316

>  <r_j_Heat_Capacity_(cal/mol/K)_298.15K_1.00E+00atm> (1)
22.30195015003

>  <r_j_ln(Q)_298.15K_1.00E+00atm> (1)
31.1574244389288

>  <r_j_Total_Internal_Energy_(au)_298.15K_1.00E+00atm> (1)
-271.725227500395

>  <r_j_Total_Enthalpy_(au)_298.15K_1.00E+00atm> (1)
-271.724283314503

>  <r_j_Total_Free_Energy_(au)_298.15K_1.00E+00atm> (1)
-271.760634492299

>  <r_lp_tautomer_probability> (1)
1

>  <r_epik_Ionization_Penalty> (1)
  0.0000

>  <r_epik_Ionization_Penalty_Charging> (1)
  0.0000

>  <r_epik_Ionization_Penalty_Neutral> (1)
  0.0000

>  <r_epik_State_Penalty> (1)
  0.0000

>  <r_epik_Charging_Adjusted_Penalty> (1)
0

>  <i_epik_Tot_Q> (1)
0

>  <i_epik_Tot_abs_Q> (1)
0

>  <s_lp_Force_Field> (1)
S-OPLS

>  <r_lp_Energy> (1)
-1.61219

>  <b_lp_Chiralities_Consistent> (1)
1

$$$$
