7302_Gamma- butyrolactone
                    3D
 Schrodinger Suite 2021-3.
 12 12  0  0  1  0            999 V2000
    2.3327   -4.2942   -3.3869 C   0  0  0  0  0  0
    0.8489   -3.9668   -3.5756 C   0  0  0  0  0  0
    0.2341   -5.3162   -3.9404 C   0  0  0  0  0  0
   -0.9225   -5.6432   -3.9154 O   0  0  0  0  0  0
    1.2276   -6.1671   -4.3374 O   0  0  0  0  0  0
    2.5059   -5.4987   -4.3265 C   0  0  0  0  0  0
    2.5270   -4.5942   -2.3523 H   0  0  0  0  0  0
    3.0079   -3.4726   -3.6362 H   0  0  0  0  0  0
    0.3458   -3.5478   -2.7031 H   0  0  0  0  0  0
    0.6807   -3.2845   -4.4179 H   0  0  0  0  0  0
    2.7450   -5.1872   -5.3510 H   0  0  0  0  0  0
    3.2562   -6.2188   -3.9932 H   0  0  0  0  0  0
  1  6  1  0  0  0
  1  2  1  0  0  0
  1  7  1  0  0  0
  1  8  1  0  0  0
  2  3  1  0  0  0
  2  9  1  0  0  0
  2 10  1  0  0  0
  3  4  2  0  0  0
  3  5  1  0  0  0
  5  6  1  0  0  0
  6 11  1  0  0  0
  6 12  1  0  0  0
M  END
>  <i_m_Spin_multiplicity> (1)
1

>  <s_j_Task> (1)
Single Point

>  <s_j_QM_Method> (1)
DFT(b3lyp-d3)

>  <s_j_QM_Basis> (1)
cc-pvtz(-f)

>  <i_j_Number_of_canonical_orbitals> (1)
191

>  <i_j_Geometry_convergence_category> (1)
0

>  <r_j_Gas_Phase_Energy> (1)
-306.607610508801

>  <r_j_Final_Energy> (1)
-306.607610508801

>  <r_j_HOMO> (1)
-0.283397657572237

>  <r_j_LUMO> (1)
-0.00673543353816934

>  <r_j_Polarizability> (1)
49.5267022625786

>  <r_j_QM_Dipole_(debye)> (1)
4.58348838529961

>  <r_j_QM_Dipole_X_(debye)> (1)
3.85947836553636

>  <r_j_QM_Dipole_Y_(debye)> (1)
2.44521672607362

>  <r_j_QM_Dipole_Z_(debye)> (1)
0.365660616778809

>  <r_j_Lowest_Frequency_(cm-1)> (1)
179.673079798879

>  <r_j_Highest_Frequency_(cm-1)> (1)
3086.00217210149

>  <r_j_2nd_Lowest_Frequency_(cm-1)> (1)
240.890529905593

>  <i_j_Num_Negative_Frequencies> (1)
0

>  <r_j_Zero_Point_Energy_(kcal/mol)> (1)
61.4541258178474

>  <r_j_Entropy_(cal/mol/K)_298.15K_1.00E+00atm> (1)
72.4223049856928

>  <r_j_Enthalpy_(kcal/mol)_298.15K_1.00E+00atm> (1)
3.75177905773797

>  <r_j_Free_Energy_(kcal/mol)_298.15K_1.00E+00atm> (1)
-17.8409311737463

>  <r_j_Internal_Energy_(kcal/mol)_298.15K_1.00E+00atm> (1)
3.1592934689107

>  <r_j_Heat_Capacity_(cal/mol/K)_298.15K_1.00E+00atm> (1)
18.3101823859253

>  <r_j_ln(Q)_298.15K_1.00E+00atm> (1)
30.1120086465891

>  <r_j_Total_Internal_Energy_(au)_298.15K_1.00E+00atm> (1)
-306.504642470268

>  <r_j_Total_Enthalpy_(au)_298.15K_1.00E+00atm> (1)
-306.503698284376

>  <r_j_Total_Free_Energy_(au)_298.15K_1.00E+00atm> (1)
-306.538108458666

>  <r_lp_tautomer_probability> (1)
1

>  <r_epik_Ionization_Penalty> (1)
  0.0000

>  <r_epik_Ionization_Penalty_Charging> (1)
  0.0000

>  <r_epik_Ionization_Penalty_Neutral> (1)
  0.0000

>  <r_epik_State_Penalty> (1)
  0.0000

>  <r_epik_Charging_Adjusted_Penalty> (1)
0

>  <i_epik_Tot_Q> (1)
0

>  <i_epik_Tot_abs_Q> (1)
0

>  <s_lp_Force_Field> (1)
S-OPLS

>  <r_lp_Energy> (1)
-1.176775

>  <b_lp_Chiralities_Consistent> (1)
1

>  <s_epik_Chemistry_Notes> (1)
This compound has an ester and may undergo hydrolysis at high or low pH.

$$$$
