7342_Ethyl isobutyrate
                    3D
 Schrodinger Suite 2021-3.
 20 19  0  0  1  0            999 V2000
   -2.3778   -2.6845    0.0088 C   0  0  0  0  0  0
   -1.9884   -1.2194    0.0011 C   0  0  0  0  0  0
   -0.5426   -1.1606    0.0007 O   0  0  0  0  0  0
   -0.0061    0.0793   -0.0046 C   0  0  0  0  0  0
   -0.6684    1.0969   -0.0095 O   0  0  0  0  0  0
    1.5145    0.0463   -0.0022 C   0  0  0  0  0  0
    2.0264    0.7387    1.2719 C   0  0  0  0  0  0
    2.0320    0.7512   -1.2670 C   0  0  0  0  0  0
   -3.4679   -2.7815    0.0094 H   0  0  0  0  0  0
   -1.9848   -3.1856    0.8981 H   0  0  0  0  0  0
   -1.9849   -3.1949   -0.8752 H   0  0  0  0  0  0
   -2.3648   -0.6946   -0.8834 H   0  0  0  0  0  0
   -2.3648   -0.6854    0.8800 H   0  0  0  0  0  0
    1.8329   -1.0009   -0.0063 H   0  0  0  0  0  0
    1.6895    0.2177    2.1738 H   0  0  0  0  0  0
    1.6552    1.7669    1.3128 H   0  0  0  0  0  0
    3.1206    0.7611    1.2799 H   0  0  0  0  0  0
    1.7005    0.2382   -2.1755 H   0  0  0  0  0  0
    3.1263    0.7751   -1.2692 H   0  0  0  0  0  0
    1.6594    1.7791   -1.3003 H   0  0  0  0  0  0
  1  2  1  0  0  0
  1  9  1  0  0  0
  1 10  1  0  0  0
  1 11  1  0  0  0
  2  3  1  0  0  0
  2 12  1  0  0  0
  2 13  1  0  0  0
  3  4  1  0  0  0
  4  5  2  0  0  0
  4  6  1  0  0  0
  6  7  1  0  0  0
  6  8  1  0  0  0
  6 14  1  0  0  0
  7 15  1  0  0  0
  7 16  1  0  0  0
  7 17  1  0  0  0
  8 18  1  0  0  0
  8 19  1  0  0  0
  8 20  1  0  0  0
M  END
>  <i_m_Spin_multiplicity> (1)
1

>  <s_j_Task> (1)
Single Point

>  <s_j_QM_Method> (1)
DFT(b3lyp-d3)

>  <s_j_QM_Basis> (1)
cc-pvtz(-f)

>  <i_j_Number_of_canonical_orbitals> (1)
291

>  <i_j_Geometry_convergence_category> (1)
0

>  <r_j_Gas_Phase_Energy> (1)
-386.488234635119

>  <r_j_Final_Energy> (1)
-386.488234635119

>  <r_j_HOMO> (1)
-0.274267086814593

>  <r_j_LUMO> (1)
0.00456154168179732

>  <r_j_Polarizability> (1)
79.8892551177015

>  <r_j_QM_Dipole_(debye)> (1)
1.83060212836668

>  <r_j_QM_Dipole_X_(debye)> (1)
0.32889230076556

>  <r_j_QM_Dipole_Y_(debye)> (1)
-1.80076778222999

>  <r_j_QM_Dipole_Z_(debye)> (1)
0.0130154277773035

>  <r_j_Lowest_Frequency_(cm-1)> (1)
52.2861903994611

>  <r_j_Highest_Frequency_(cm-1)> (1)
3073.80115196122

>  <r_j_2nd_Lowest_Frequency_(cm-1)> (1)
106.797409517224

>  <i_j_Num_Negative_Frequencies> (1)
0

>  <r_j_Zero_Point_Energy_(kcal/mol)> (1)
109.754505815401

>  <r_j_Entropy_(cal/mol/K)_298.15K_1.00E+00atm> (1)
92.4206519115038

>  <r_j_Enthalpy_(kcal/mol)_298.15K_1.00E+00atm> (1)
6.4102028249482

>  <r_j_Free_Energy_(kcal/mol)_298.15K_1.00E+00atm> (1)
-21.1450145424667

>  <r_j_Internal_Energy_(kcal/mol)_298.15K_1.00E+00atm> (1)
5.81771723612093

>  <r_j_Heat_Capacity_(cal/mol/K)_298.15K_1.00E+00atm> (1)
33.8078367875762

>  <r_j_ln(Q)_298.15K_1.00E+00atm> (1)
35.6886563001805

>  <r_j_Total_Internal_Energy_(au)_298.15K_1.00E+00atm> (1)
-386.30405857312

>  <r_j_Total_Enthalpy_(au)_298.15K_1.00E+00atm> (1)
-386.303114387228

>  <r_j_Total_Free_Energy_(au)_298.15K_1.00E+00atm> (1)
-386.347026421524

>  <r_lp_tautomer_probability> (1)
1

>  <r_epik_Ionization_Penalty> (1)
  0.0000

>  <r_epik_Ionization_Penalty_Charging> (1)
  0.0000

>  <r_epik_Ionization_Penalty_Neutral> (1)
  0.0000

>  <r_epik_State_Penalty> (1)
  0.0000

>  <r_epik_Charging_Adjusted_Penalty> (1)
0

>  <i_epik_Tot_Q> (1)
0

>  <i_epik_Tot_abs_Q> (1)
0

>  <s_lp_Force_Field> (1)
S-OPLS

>  <r_lp_Energy> (1)
2.46732

>  <b_lp_Chiralities_Consistent> (1)
1

>  <s_epik_Chemistry_Notes> (1)
This compound has an ester and may undergo hydrolysis at high or low pH.

$$$$
