7343_Ethyl Methacrylate
                    3D
 Schrodinger Suite 2021-3.
 18 17  0  0  1  0            999 V2000
   -0.5188    1.4308   -0.0028 C   0  0  0  0  0  0
   -0.1292   -0.0345    0.0015 C   0  0  0  0  0  0
    1.3146   -0.0918    0.0006 O   0  0  0  0  0  0
    1.8512   -1.3328    0.0007 C   0  0  0  0  0  0
    1.1731   -2.3436    0.0016 O   0  0  0  0  0  0
    3.3494   -1.3300   -0.0002 C   0  0  0  0  0  0
    4.0328   -0.1783    0.0018 C   0  0  0  0  0  0
    4.0127   -2.6894   -0.0030 C   0  0  0  0  0  0
   -1.6089    1.5276   -0.0023 H   0  0  0  0  0  0
   -0.1271    1.9336   -0.8917 H   0  0  0  0  0  0
   -0.1259    1.9394    0.8823 H   0  0  0  0  0  0
   -0.5054   -0.5601    0.8855 H   0  0  0  0  0  0
   -0.5068   -0.5656   -0.8785 H   0  0  0  0  0  0
    3.5313    0.7819    0.0040 H   0  0  0  0  0  0
    5.1194   -0.1752    0.0014 H   0  0  0  0  0  0
    3.2635   -3.4817   -0.0065 H   0  0  0  0  0  0
    4.6456   -2.8159    0.8810 H   0  0  0  0  0  0
    4.6493   -2.8110   -0.8853 H   0  0  0  0  0  0
  1  2  1  0  0  0
  1  9  1  0  0  0
  1 10  1  0  0  0
  1 11  1  0  0  0
  2  3  1  0  0  0
  2 12  1  0  0  0
  2 13  1  0  0  0
  3  4  1  0  0  0
  4  5  2  0  0  0
  4  6  1  0  0  0
  6  7  2  0  0  0
  6  8  1  0  0  0
  7 14  1  0  0  0
  7 15  1  0  0  0
  8 16  1  0  0  0
  8 17  1  0  0  0
  8 18  1  0  0  0
M  END
>  <i_m_Spin_multiplicity> (1)
1

>  <s_j_Task> (1)
Single Point

>  <s_j_QM_Method> (1)
DFT(b3lyp-d3)

>  <s_j_QM_Basis> (1)
cc-pvtz(-f)

>  <i_j_Number_of_canonical_orbitals> (1)
272

>  <i_j_Geometry_convergence_category> (1)
0

>  <r_j_Gas_Phase_Energy> (1)
-385.251627305133

>  <r_j_Final_Energy> (1)
-385.251627305133

>  <r_j_HOMO> (1)
-0.279407068410098

>  <r_j_LUMO> (1)
-0.0586117871467391

>  <r_j_Polarizability> (1)
78.8259736840942

>  <r_j_QM_Dipole_(debye)> (1)
1.90011616876551

>  <r_j_QM_Dipole_X_(debye)> (1)
0.518284922210422

>  <r_j_QM_Dipole_Y_(debye)> (1)
1.82806482293061

>  <r_j_QM_Dipole_Z_(debye)> (1)
-0.00109424728740456

>  <r_j_Lowest_Frequency_(cm-1)> (1)
73.2936684501131

>  <r_j_Highest_Frequency_(cm-1)> (1)
3200.85694748978

>  <r_j_2nd_Lowest_Frequency_(cm-1)> (1)
94.6089009995984

>  <i_j_Num_Negative_Frequencies> (1)
0

>  <r_j_Zero_Point_Energy_(kcal/mol)> (1)
94.7680749836434

>  <r_j_Entropy_(cal/mol/K)_298.15K_1.00E+00atm> (1)
92.210371426598

>  <r_j_Enthalpy_(kcal/mol)_298.15K_1.00E+00atm> (1)
6.25825901681287

>  <r_j_Free_Energy_(kcal/mol)_298.15K_1.00E+00atm> (1)
-21.2342632240273

>  <r_j_Internal_Energy_(kcal/mol)_298.15K_1.00E+00atm> (1)
5.6657734279856

>  <r_j_Heat_Capacity_(cal/mol/K)_298.15K_1.00E+00atm> (1)
32.1459389919405

>  <r_j_ln(Q)_298.15K_1.00E+00atm> (1)
35.839290650186

>  <r_j_Total_Internal_Energy_(au)_298.15K_1.00E+00atm> (1)
-385.091575778881

>  <r_j_Total_Enthalpy_(au)_298.15K_1.00E+00atm> (1)
-385.090631592988

>  <r_j_Total_Free_Energy_(au)_298.15K_1.00E+00atm> (1)
-385.134443716239

>  <r_lp_tautomer_probability> (1)
1

>  <r_epik_Ionization_Penalty> (1)
  0.0000

>  <r_epik_Ionization_Penalty_Charging> (1)
  0.0000

>  <r_epik_Ionization_Penalty_Neutral> (1)
  0.0000

>  <r_epik_State_Penalty> (1)
  0.0000

>  <r_epik_Charging_Adjusted_Penalty> (1)
0

>  <i_epik_Tot_Q> (1)
0

>  <i_epik_Tot_abs_Q> (1)
0

>  <s_lp_Force_Field> (1)
S-OPLS

>  <r_lp_Energy> (1)
3.907078

>  <b_lp_Chiralities_Consistent> (1)
1

>  <s_epik_Chemistry_Notes> (1)
This compound has an ester and may undergo hydrolysis at high or low pH.

$$$$
