7344_Ethyl Lactate
                    3D
 Schrodinger Suite 2021-3.
 18 17  0  0  1  0            999 V2000
   -2.3617   -2.5912    0.3004 C   0  0  0  0  0  0
   -1.9644   -1.1709   -0.0473 C   0  0  0  0  0  0
   -0.5163   -1.0984    0.0401 O   0  0  0  0  0  0
    0.0305    0.0929   -0.2312 C   0  0  0  0  0  0
   -0.5996    1.0862   -0.5429 O   0  0  0  0  0  0
    1.5494    0.0873   -0.0841 C   0  0  0  0  0  0
    1.9469   -0.1796    1.3741 C   0  0  0  0  0  0
    2.0709    1.3177   -0.5342 O   0  0  0  0  0  0
   -3.4496   -2.6964    0.2480 H   0  0  0  0  0  0
   -2.0372   -2.8479    1.3127 H   0  0  0  0  0  0
   -1.9109   -3.3019   -0.3978 H   0  0  0  0  0  0
   -2.2673   -0.8894   -1.0607 H   0  0  0  0  0  0
   -2.3933   -0.4372    0.6424 H   0  0  0  0  0  0
    1.9349   -0.7268   -0.7157 H   0  0  0  0  0  0
    1.5891   -1.1575    1.7069 H   0  0  0  0  0  0
    1.5288    0.5963    2.0228 H   0  0  0  0  0  0
    3.0357   -0.1456    1.4584 H   0  0  0  0  0  0
    1.3030    1.8957   -0.6788 H   0  0  0  0  0  0
  1  2  1  0  0  0
  1  9  1  0  0  0
  1 10  1  0  0  0
  1 11  1  0  0  0
  2  3  1  0  0  0
  2 12  1  0  0  0
  2 13  1  0  0  0
  3  4  1  0  0  0
  4  5  2  0  0  0
  4  6  1  0  0  0
  6  7  1  0  0  0
  6  8  1  0  0  0
  6 14  1  0  0  0
  7 15  1  0  0  0
  7 16  1  0  0  0
  7 17  1  0  0  0
  8 18  1  0  0  0
M  END
>  <i_m_Spin_multiplicity> (1)
1

>  <s_j_Task> (1)
Single Point

>  <s_j_QM_Method> (1)
DFT(b3lyp-d3)

>  <s_j_QM_Basis> (1)
cc-pvtz(-f)

>  <i_j_Number_of_canonical_orbitals> (1)
273

>  <i_j_Geometry_convergence_category> (1)
3

>  <r_j_Gas_Phase_Energy> (1)
-422.404623229186

>  <r_j_Final_Energy> (1)
-422.404623229186

>  <r_j_HOMO> (1)
-0.275474864787289

>  <r_j_LUMO> (1)
-0.0105153511801586

>  <r_j_Polarizability> (1)
71.3655214546079

>  <r_j_QM_Dipole_(debye)> (1)
3.17450634105607

>  <r_j_QM_Dipole_X_(debye)> (1)
-1.79549013874807

>  <r_j_QM_Dipole_Y_(debye)> (1)
-2.45952392261941

>  <r_j_QM_Dipole_Z_(debye)> (1)
0.896910109836228

>  <r_j_Lowest_Frequency_(cm-1)> (1)
76.1646346703382

>  <r_j_Highest_Frequency_(cm-1)> (1)
3666.21418771421

>  <r_j_2nd_Lowest_Frequency_(cm-1)> (1)
107.923807611722

>  <i_j_Num_Negative_Frequencies> (1)
0

>  <r_j_Zero_Point_Energy_(kcal/mol)> (1)
94.8969094323003

>  <r_j_Entropy_(cal/mol/K)_298.15K_1.00E+00atm> (1)
91.5591027451067

>  <r_j_Enthalpy_(kcal/mol)_298.15K_1.00E+00atm> (1)
6.2439871767415

>  <r_j_Free_Energy_(kcal/mol)_298.15K_1.00E+00atm> (1)
-21.0543593067121

>  <r_j_Internal_Energy_(kcal/mol)_298.15K_1.00E+00atm> (1)
5.65150158791423

>  <r_j_Heat_Capacity_(cal/mol/K)_298.15K_1.00E+00atm> (1)
32.5443493773347

>  <r_j_ln(Q)_298.15K_1.00E+00atm> (1)
35.5356479613042

>  <r_j_Total_Internal_Energy_(au)_298.15K_1.00E+00atm> (1)
-422.244389135794

>  <r_j_Total_Enthalpy_(au)_298.15K_1.00E+00atm> (1)
-422.243444949902

>  <r_j_Total_Free_Energy_(au)_298.15K_1.00E+00atm> (1)
-422.286947634385

>  <r_lp_tautomer_probability> (1)
1

>  <r_epik_Ionization_Penalty> (1)
  0.0000

>  <r_epik_Ionization_Penalty_Charging> (1)
  0.0000

>  <r_epik_Ionization_Penalty_Neutral> (1)
  0.0000

>  <r_epik_State_Penalty> (1)
  0.0000

>  <r_epik_Charging_Adjusted_Penalty> (1)
0

>  <i_epik_Tot_Q> (1)
0

>  <i_epik_Tot_abs_Q> (1)
0

>  <s_lp_Force_Field> (1)
S-OPLS

>  <r_lp_Energy> (1)
3.700902

>  <b_lp_Chiralities_Consistent> (1)
1

>  <s_epik_Chemistry_Notes> (1)
This compound has an ester and may undergo hydrolysis at high or low pH.

$$$$
