73557399_A-methylfluorene
                    3D
 Schrodinger Suite 2021-3.
 26 28  0  0  1  0            999 V2000
   -0.0292    0.0512   -0.0144 C   0  0  0  0  0  0
    1.4742   -0.0120   -0.0399 C   0  0  0  0  0  0
    2.1574   -1.1850    0.0684 C   0  0  0  0  0  0
    3.5966   -1.1740    0.0919 C   0  0  0  0  0  0
    4.4928   -2.0464    0.6262 C   0  0  0  0  0  0
    5.8219   -1.4491    0.6144 C   0  0  0  0  0  0
    5.7404   -0.1582    0.0393 C   0  0  0  0  0  0
    4.3226    0.0464   -0.4455 C   0  0  0  0  0  0
    3.5477    1.3165   -0.2354 C   0  0  0  0  0  0
    2.2096    1.2569   -0.1073 C   0  0  0  0  0  0
    6.8621    0.6482   -0.0661 C   0  0  0  0  0  0
    8.0843    0.1709    0.4270 C   0  0  0  0  0  0
    8.1731   -1.1068    0.9888 C   0  0  0  0  0  0
    7.0486   -1.9298    1.0816 C   0  0  0  0  0  0
   -0.3824    0.6825    0.8110 H   0  0  0  0  0  0
   -0.4757   -0.9402    0.0996 H   0  0  0  0  0  0
   -0.4202    0.4958   -0.9385 H   0  0  0  0  0  0
    1.6244   -2.1176    0.2382 H   0  0  0  0  0  0
    4.2596   -3.0189    1.0456 H   0  0  0  0  0  0
    4.3758   -0.0830   -1.5466 H   0  0  0  0  0  0
    4.0709    2.2679   -0.2780 H   0  0  0  0  0  0
    1.6307    2.1747   -0.0315 H   0  0  0  0  0  0
    6.7984    1.6378   -0.5113 H   0  0  0  0  0  0
    8.9689    0.7989    0.3745 H   0  0  0  0  0  0
    9.1303   -1.4625    1.3597 H   0  0  0  0  0  0
    7.1248   -2.9229    1.5152 H   0  0  0  0  0  0
  1  2  1  0  0  0
  1 15  1  0  0  0
  1 16  1  0  0  0
  1 17  1  0  0  0
  2 10  1  0  0  0
  2  3  2  0  0  0
  3  4  1  0  0  0
  3 18  1  0  0  0
  4  8  1  0  0  0
  4  5  2  0  0  0
  5  6  1  0  0  0
  5 19  1  0  0  0
  6 14  2  0  0  0
  6  7  1  0  0  0
  7  8  1  0  0  0
  7 11  2  0  0  0
  8  9  1  0  0  0
  8 20  1  0  0  0
  9 10  2  0  0  0
  9 21  1  0  0  0
 10 22  1  0  0  0
 11 12  1  0  0  0
 11 23  1  0  0  0
 12 13  2  0  0  0
 12 24  1  0  0  0
 13 14  1  0  0  0
 13 25  1  0  0  0
 14 26  1  0  0  0
M  END
>  <i_m_Spin_multiplicity> (1)
1

>  <s_j_Task> (1)
Single Point

>  <s_j_QM_Method> (1)
DFT(b3lyp-d3)

>  <s_j_QM_Basis> (1)
cc-pvtz(-f)

>  <i_j_Number_of_canonical_orbitals> (1)
421

>  <i_j_Geometry_convergence_category> (1)
0

>  <r_j_Gas_Phase_Energy> (1)
-540.868632715767

>  <r_j_Final_Energy> (1)
-540.868632715767

>  <r_j_HOMO> (1)
-0.199083539567306

>  <r_j_LUMO> (1)
-0.0655952684686822

>  <r_j_Polarizability> (1)
168.605352193049

>  <r_j_QM_Dipole_(debye)> (1)
1.14042026274494

>  <r_j_QM_Dipole_X_(debye)> (1)
-1.00810630996622

>  <r_j_QM_Dipole_Y_(debye)> (1)
0.403010672257988

>  <r_j_QM_Dipole_Z_(debye)> (1)
-0.349088014018955

>  <r_j_Lowest_Frequency_(cm-1)> (1)
88.0525037226057

>  <r_j_Highest_Frequency_(cm-1)> (1)
3155.6505531707

>  <r_j_2nd_Lowest_Frequency_(cm-1)> (1)
128.953625986164

>  <i_j_Num_Negative_Frequencies> (1)
0

>  <r_j_Zero_Point_Energy_(kcal/mol)> (1)
133.729459237968

>  <r_j_Entropy_(cal/mol/K)_298.15K_1.00E+00atm> (1)
98.5887901130858

>  <r_j_Enthalpy_(kcal/mol)_298.15K_1.00E+00atm> (1)
7.10618526267755

>  <r_j_Free_Energy_(kcal/mol)_298.15K_1.00E+00atm> (1)
-22.288062509539

>  <r_j_Internal_Energy_(kcal/mol)_298.15K_1.00E+00atm> (1)
6.51369967385028

>  <r_j_Heat_Capacity_(cal/mol/K)_298.15K_1.00E+00atm> (1)
44.0497093534824

>  <r_j_ln(Q)_298.15K_1.00E+00atm> (1)
37.6178981055968

>  <r_j_Total_Internal_Energy_(au)_298.15K_1.00E+00atm> (1)
-540.645141014659

>  <r_j_Total_Enthalpy_(au)_298.15K_1.00E+00atm> (1)
-540.644196828767

>  <r_j_Total_Free_Energy_(au)_298.15K_1.00E+00atm> (1)
-540.691039544578

>  <r_lp_tautomer_probability> (1)
1

>  <r_epik_Ionization_Penalty> (1)
  0.0000

>  <r_epik_Ionization_Penalty_Charging> (1)
  0.0000

>  <r_epik_Ionization_Penalty_Neutral> (1)
  0.0000

>  <r_epik_State_Penalty> (1)
  0.0000

>  <r_epik_Charging_Adjusted_Penalty> (1)
0

>  <i_epik_Tot_Q> (1)
0

>  <i_epik_Tot_abs_Q> (1)
0

>  <s_lp_Force_Field> (1)
S-OPLS

>  <r_lp_Energy> (1)
24.8701

>  <b_lp_Chiralities_Consistent> (1)
1

$$$$
