7360_Tetrahydrofurfuryl alcohol
                    3D
 Schrodinger Suite 2021-3.
 17 17  0  0  1  0            999 V2000
   -1.9237    0.0457   -1.4591 C   0  0  0  0  0  0
   -0.5959   -0.6981   -1.2073 C   0  0  0  0  0  0
    0.0357    0.1270   -0.0778 C   0  0  0  0  0  0
   -0.3097    1.4722   -0.4030 O   0  0  0  0  0  0
   -1.6538    1.4651   -0.8843 C   0  0  0  0  0  0
    1.5424    0.0037    0.0232 C   0  0  0  0  0  0
    1.9727    0.6326    1.2219 O   0  0  0  0  0  0
   -2.7489   -0.4363   -0.9259 H   0  0  0  0  0  0
   -2.1896    0.0694   -2.5191 H   0  0  0  0  0  0
   -0.7321   -1.7503   -0.9425 H   0  0  0  0  0  0
    0.0496   -0.6499   -2.0922 H   0  0  0  0  0  0
   -0.4027   -0.1563    0.8955 H   0  0  0  0  0  0
   -1.7392    2.2582   -1.6339 H   0  0  0  0  0  0
   -2.3537    1.6943   -0.0665 H   0  0  0  0  0  0
    1.8070   -1.0675    0.0106 H   0  0  0  0  0  0
    1.9795    0.4727   -0.8721 H   0  0  0  0  0  0
    2.9365    0.6775    1.2075 H   0  0  0  0  0  0
  1  5  1  0  0  0
  1  2  1  0  0  0
  1  8  1  0  0  0
  1  9  1  0  0  0
  2  3  1  0  0  0
  2 10  1  0  0  0
  2 11  1  0  0  0
  3  4  1  0  0  0
  3  6  1  0  0  0
  3 12  1  0  0  0
  4  5  1  0  0  0
  5 13  1  0  0  0
  5 14  1  0  0  0
  6  7  1  0  0  0
  6 15  1  0  0  0
  6 16  1  0  0  0
  7 17  1  0  0  0
M  END
>  <i_m_Spin_multiplicity> (1)
1

>  <s_j_Task> (1)
Single Point

>  <s_j_QM_Method> (1)
DFT(b3lyp-d3)

>  <s_j_QM_Basis> (1)
cc-pvtz(-f)

>  <i_j_Number_of_canonical_orbitals> (1)
250

>  <i_j_Geometry_convergence_category> (1)
0

>  <r_j_Gas_Phase_Energy> (1)
-347.112830891065

>  <r_j_Final_Energy> (1)
-347.112830891065

>  <r_j_HOMO> (1)
-0.245784462293194

>  <r_j_LUMO> (1)
0.0316353313865105

>  <r_j_Polarizability> (1)
66.0466879269081

>  <r_j_QM_Dipole_(debye)> (1)
2.1340839358546

>  <r_j_QM_Dipole_X_(debye)> (1)
0.166236840654778

>  <r_j_QM_Dipole_Y_(debye)> (1)
-1.65442326227082

>  <r_j_QM_Dipole_Z_(debye)> (1)
-1.33774557646025

>  <r_j_Lowest_Frequency_(cm-1)> (1)
120.152069560816

>  <r_j_Highest_Frequency_(cm-1)> (1)
3779.80128536702

>  <r_j_2nd_Lowest_Frequency_(cm-1)> (1)
127.964729997171

>  <i_j_Num_Negative_Frequencies> (1)
0

>  <r_j_Zero_Point_Energy_(kcal/mol)> (1)
93.5227443336627

>  <r_j_Entropy_(cal/mol/K)_298.15K_1.00E+00atm> (1)
82.690440861885

>  <r_j_Enthalpy_(kcal/mol)_298.15K_1.00E+00atm> (1)
5.04769737700073

>  <r_j_Free_Energy_(kcal/mol)_298.15K_1.00E+00atm> (1)
-19.6064575659703

>  <r_j_Internal_Energy_(kcal/mol)_298.15K_1.00E+00atm> (1)
4.45521178817345

>  <r_j_Heat_Capacity_(cal/mol/K)_298.15K_1.00E+00atm> (1)
25.8967603505197

>  <r_j_ln(Q)_298.15K_1.00E+00atm> (1)
33.0918725040688

>  <r_j_Total_Internal_Energy_(au)_298.15K_1.00E+00atm> (1)
-346.956693078322

>  <r_j_Total_Enthalpy_(au)_298.15K_1.00E+00atm> (1)
-346.955748892429

>  <r_j_Total_Free_Energy_(au)_298.15K_1.00E+00atm> (1)
-346.995037789445

>  <r_lp_tautomer_probability> (1)
1

>  <r_epik_Ionization_Penalty> (1)
  0.0000

>  <r_epik_Ionization_Penalty_Charging> (1)
  0.0000

>  <r_epik_Ionization_Penalty_Neutral> (1)
  0.0000

>  <r_epik_State_Penalty> (1)
  0.0000

>  <r_epik_Charging_Adjusted_Penalty> (1)
0

>  <i_epik_Tot_Q> (1)
0

>  <i_epik_Tot_abs_Q> (1)
0

>  <s_lp_Force_Field> (1)
S-OPLS

>  <r_lp_Energy> (1)
-1.363975

>  <b_lp_Chiralities_Consistent> (1)
1

$$$$
