7366_T-butylbenzene
                    3D
 Schrodinger Suite 2021-3.
 24 24  0  0  1  0            999 V2000
   -0.4892   -0.7358    1.2501 C   0  0  0  0  0  0
    0.0154   -0.0107   -0.0188 C   0  0  0  0  0  0
   -0.5849   -0.7186   -1.2467 C   0  0  0  0  0  0
   -0.4897    1.4506   -0.0103 C   0  0  0  0  0  0
    1.5541   -0.0174   -0.0305 C   0  0  0  0  0  0
    2.3074   -0.6091   -1.0521 C   0  0  0  0  0  0
    3.7046   -0.5941   -1.0259 C   0  0  0  0  0  0
    4.3845    0.0146    0.0256 C   0  0  0  0  0  0
    3.6511    0.6097    1.0534 C   0  0  0  0  0  0
    2.2591    0.5917    1.0217 C   0  0  0  0  0  0
   -1.5848   -0.7400    1.2784 H   0  0  0  0  0  0
   -0.1343   -0.2499    2.1634 H   0  0  0  0  0  0
   -0.1426   -1.7742    1.2674 H   0  0  0  0  0  0
   -0.2853   -1.7706   -1.2947 H   0  0  0  0  0  0
   -0.2860   -0.2324   -2.1811 H   0  0  0  0  0  0
   -1.6779   -0.6879   -1.1926 H   0  0  0  0  0  0
   -1.5853    1.4766   -0.0002 H   0  0  0  0  0  0
   -0.1429    1.9864   -0.8998 H   0  0  0  0  0  0
   -0.1355    1.9972    0.8684 H   0  0  0  0  0  0
    1.8129   -1.0924   -1.8867 H   0  0  0  0  0  0
    4.2593   -1.0624   -1.8345 H   0  0  0  0  0  0
    5.4705    0.0264    0.0464 H   0  0  0  0  0  0
    4.1644    1.0895    1.8824 H   0  0  0  0  0  0
    1.7128    1.0621    1.8341 H   0  0  0  0  0  0
  1  2  1  0  0  0
  1 11  1  0  0  0
  1 12  1  0  0  0
  1 13  1  0  0  0
  2  3  1  0  0  0
  2  4  1  0  0  0
  2  5  1  0  0  0
  3 14  1  0  0  0
  3 15  1  0  0  0
  3 16  1  0  0  0
  4 17  1  0  0  0
  4 18  1  0  0  0
  4 19  1  0  0  0
  5 10  1  0  0  0
  5  6  2  0  0  0
  6  7  1  0  0  0
  6 20  1  0  0  0
  7  8  2  0  0  0
  7 21  1  0  0  0
  8  9  1  0  0  0
  8 22  1  0  0  0
  9 10  2  0  0  0
  9 23  1  0  0  0
 10 24  1  0  0  0
M  END
>  <i_m_Spin_multiplicity> (1)
1

>  <s_j_Task> (1)
Single Point

>  <s_j_QM_Method> (1)
DFT(b3lyp-d3)

>  <s_j_QM_Basis> (1)
cc-pvtz(-f)

>  <i_j_Number_of_canonical_orbitals> (1)
349

>  <i_j_Geometry_convergence_category> (1)
0

>  <r_j_Gas_Phase_Energy> (1)
-389.64971414031

>  <r_j_Final_Energy> (1)
-389.64971414031

>  <r_j_HOMO> (1)
-0.245069926861171

>  <r_j_LUMO> (1)
-0.0114945716552253

>  <r_j_Polarizability> (1)
113.149240067541

>  <r_j_QM_Dipole_(debye)> (1)
0.359069785353606

>  <r_j_QM_Dipole_X_(debye)> (1)
-0.358553411003857

>  <r_j_QM_Dipole_Y_(debye)> (1)
0.00912779059220826

>  <r_j_QM_Dipole_Z_(debye)> (1)
0.0169483229344062

>  <r_j_Lowest_Frequency_(cm-1)> (1)
81.6142124373414

>  <r_j_Highest_Frequency_(cm-1)> (1)
3159.78988364445

>  <r_j_2nd_Lowest_Frequency_(cm-1)> (1)
147.363362961035

>  <i_j_Num_Negative_Frequencies> (1)
0

>  <r_j_Zero_Point_Energy_(kcal/mol)> (1)
133.33191546692

>  <r_j_Entropy_(cal/mol/K)_298.15K_1.00E+00atm> (1)
91.7525033368807

>  <r_j_Enthalpy_(kcal/mol)_298.15K_1.00E+00atm> (1)
6.39937190665245

>  <r_j_Free_Energy_(kcal/mol)_298.15K_1.00E+00atm> (1)
-20.9566369632385

>  <r_j_Internal_Energy_(kcal/mol)_298.15K_1.00E+00atm> (1)
5.80688631782518

>  <r_j_Heat_Capacity_(cal/mol/K)_298.15K_1.00E+00atm> (1)
38.2675726668395

>  <r_j_ln(Q)_298.15K_1.00E+00atm> (1)
35.3707117243453

>  <r_j_Total_Internal_Energy_(au)_298.15K_1.00E+00atm> (1)
-389.427982344318

>  <r_j_Total_Enthalpy_(au)_298.15K_1.00E+00atm> (1)
-389.427038158426

>  <r_j_Total_Free_Energy_(au)_298.15K_1.00E+00atm> (1)
-389.470632733772

>  <r_lp_tautomer_probability> (1)
1

>  <r_epik_Ionization_Penalty> (1)
  0.0000

>  <r_epik_Ionization_Penalty_Charging> (1)
  0.0000

>  <r_epik_Ionization_Penalty_Neutral> (1)
  0.0000

>  <r_epik_State_Penalty> (1)
  0.0000

>  <r_epik_Charging_Adjusted_Penalty> (1)
0

>  <i_epik_Tot_Q> (1)
0

>  <i_epik_Tot_abs_Q> (1)
0

>  <s_lp_Force_Field> (1)
S-OPLS

>  <r_lp_Energy> (1)
11.675908

>  <b_lp_Chiralities_Consistent> (1)
1

$$$$
