7378_1-(1,1-dimethylethyl)-3,5-dimethylbenzene
                    3D
 Schrodinger Suite 2021-3.
 30 30  0  0  1  0            999 V2000
   -0.0428    0.0166   -0.0003 C   0  0  0  0  0  0
    1.4686    0.0527    0.0000 C   0  0  0  0  0  0
    2.1641    1.2632   -0.0002 C   0  0  0  0  0  0
    3.5623    1.2919   -0.0001 C   0  0  0  0  0  0
    4.2618    0.0814    0.0001 C   0  0  0  0  0  0
    3.5996   -1.1541    0.0004 C   0  0  0  0  0  0
    2.1993   -1.1405    0.0003 C   0  0  0  0  0  0
    4.3491   -2.4994    0.0003 C   0  0  0  0  0  0
    3.9599   -3.3042    1.2622 C   0  0  0  0  0  0
    5.8787   -2.3220    0.0000 C   0  0  0  0  0  0
    3.9596   -3.3033   -1.2621 C   0  0  0  0  0  0
    4.2965    2.6133   -0.0003 C   0  0  0  0  0  0
   -0.4701    1.0233   -0.0002 H   0  0  0  0  0  0
   -0.4271   -0.5106    0.8807 H   0  0  0  0  0  0
   -0.4267   -0.5100   -0.8818 H   0  0  0  0  0  0
    1.6097    2.1997   -0.0005 H   0  0  0  0  0  0
    5.3454    0.1188    0.0001 H   0  0  0  0  0  0
    1.6512   -2.0795    0.0005 H   0  0  0  0  0  0
    4.4835   -4.2670    1.2786 H   0  0  0  0  0  0
    2.8859   -3.5080    1.2985 H   0  0  0  0  0  0
    4.2269   -2.7546    2.1707 H   0  0  0  0  0  0
    6.2245   -1.7821    0.8875 H   0  0  0  0  0  0
    6.2240   -1.7818   -0.8875 H   0  0  0  0  0  0
    6.3642   -3.3035   -0.0003 H   0  0  0  0  0  0
    4.4835   -4.2660   -1.2797 H   0  0  0  0  0  0
    4.2260   -2.7528   -2.1702 H   0  0  0  0  0  0
    2.8858   -3.5074   -1.2981 H   0  0  0  0  0  0
    5.3811    2.4715   -0.0007 H   0  0  0  0  0  0
    4.0375    3.2117    0.8810 H   0  0  0  0  0  0
    4.0370    3.2117   -0.8815 H   0  0  0  0  0  0
  1  2  1  0  0  0
  1 13  1  0  0  0
  1 14  1  0  0  0
  1 15  1  0  0  0
  2  7  1  0  0  0
  2  3  2  0  0  0
  3  4  1  0  0  0
  3 16  1  0  0  0
  4  5  2  0  0  0
  4 12  1  0  0  0
  5  6  1  0  0  0
  5 17  1  0  0  0
  6  7  2  0  0  0
  6  8  1  0  0  0
  7 18  1  0  0  0
  8  9  1  0  0  0
  8 10  1  0  0  0
  8 11  1  0  0  0
  9 19  1  0  0  0
  9 20  1  0  0  0
  9 21  1  0  0  0
 10 22  1  0  0  0
 10 23  1  0  0  0
 10 24  1  0  0  0
 11 25  1  0  0  0
 11 26  1  0  0  0
 11 27  1  0  0  0
 12 28  1  0  0  0
 12 29  1  0  0  0
 12 30  1  0  0  0
M  END
> <i_m_Spin_multiplicity>
1

> <s_j_Task>
Single Point

> <s_j_QM_Method>
DFT(b3lyp-d3)

> <s_j_QM_Basis>
cc-pvtz(-f)

> <i_j_Number_of_canonical_orbitals>
431

> <i_j_Geometry_convergence_category>
3

> <r_j_Gas_Phase_Energy>
-468.315371669648

> <r_j_Final_Energy>
-468.315371669648

> <r_j_HOMO>
-0.234679506337128

> <r_j_LUMO>
-0.0100174143268141

> <r_j_Polarizability>
141.373252997324

> <r_j_QM_Dipole_(debye)>
0.0690173067173003

> <r_j_QM_Dipole_X_(debye)>
-0.0683793349677292

> <r_j_QM_Dipole_Y_(debye)>
0.00936219377576296

> <r_j_QM_Dipole_Z_(debye)>
6.71087628490363e-05

> <r_j_Lowest_Frequency_(cm-1)>
64.7994733510337

> <r_j_Highest_Frequency_(cm-1)>
3149.11951898074

> <r_j_2nd_Lowest_Frequency_(cm-1)>
129.518533874296

> <i_j_Num_Negative_Frequencies>
0

> <r_j_Zero_Point_Energy_(kcal/mol)>
167.7073881508

> <r_j_Entropy_(cal/mol/K)_298.15K_1.00E+00atm>
105.655865299025

> <r_j_Enthalpy_(kcal/mol)_298.15K_1.00E+00atm>
8.39566090256817

> <r_j_Free_Energy_(kcal/mol)_298.15K_1.00E+00atm>
-23.105635336336

> <r_j_Internal_Energy_(kcal/mol)_298.15K_1.00E+00atm>
7.8031753137409

> <r_j_Heat_Capacity_(cal/mol/K)_298.15K_1.00E+00atm>
50.179174514033

> <r_j_ln(Q)_298.15K_1.00E+00atm>
38.9978014183767

> <r_j_Total_Internal_Energy_(au)_298.15K_1.00E+00atm>
-468.035677781579

> <r_j_Total_Enthalpy_(au)_298.15K_1.00E+00atm>
-468.034733595687

> <r_j_Total_Free_Energy_(au)_298.15K_1.00E+00atm>
-468.084934106986

> <r_lp_tautomer_probability>
1

> <r_epik_Ionization_Penalty>
  0.0000

> <r_epik_Ionization_Penalty_Charging>
  0.0000

> <r_epik_Ionization_Penalty_Neutral>
  0.0000

> <r_epik_State_Penalty>
  0.0000

> <r_epik_Charging_Adjusted_Penalty>
0

> <i_epik_Tot_Q>
0

> <i_epik_Tot_abs_Q>
0

> <s_lp_Force_Field>
S-OPLS

> <r_lp_Energy>
7.77917

> <b_lp_Chiralities_Consistent>
1

$$$$
