73796_Iso-Hentriacontane
                    3D
 Schrodinger Suite 2021-3.
 95 94  0  0  1  0            999 V2000
   -9.9050   -0.7251   -7.2417 C   0  0  0  0  0  0
  -10.2224    0.0547   -5.9623 C   0  0  0  0  0  0
   -9.5060   -0.4988   -4.7244 C   0  0  0  0  0  0
   -9.8192    0.2843   -3.4446 C   0  0  0  0  0  0
   -9.1050   -0.2532   -2.1987 C   0  0  0  0  0  0
   -9.4167    0.5644   -0.9382 C   0  0  0  0  0  0
   -8.7742    0.0331    0.3518 C   0  0  0  0  0  0
   -7.2387    0.0234    0.3391 C   0  0  0  0  0  0
   -6.6359   -0.2615    1.7216 C   0  0  0  0  0  0
   -5.1072   -0.4156    1.7309 C   0  0  0  0  0  0
   -4.3526    0.8094    1.1905 C   0  0  0  0  0  0
   -2.8437    0.7971    1.4763 C   0  0  0  0  0  0
   -2.0909   -0.4135    0.9065 C   0  0  0  0  0  0
   -0.5714   -0.2911    1.0703 C   0  0  0  0  0  0
    0.2068   -1.5493    0.6671 C   0  0  0  0  0  0
    1.7258   -1.3614    0.7645 C   0  0  0  0  0  0
    2.5253   -2.6533    0.5465 C   0  0  0  0  0  0
    4.0475   -2.4462    0.4727 C   0  0  0  0  0  0
    4.6514   -1.7648    1.7079 C   0  0  0  0  0  0
    6.1816   -1.6659    1.6726 C   0  0  0  0  0  0
    6.7453   -0.8199    2.8204 C   0  0  0  0  0  0
    8.2751   -0.7200    2.8366 C   0  0  0  0  0  0
    8.7917    0.2666    3.8910 C   0  0  0  0  0  0
   10.3229    0.3422    3.9714 C   0  0  0  0  0  0
   10.8476    1.5049    4.8291 C   0  0  0  0  0  0
   10.4347    1.4524    6.3061 C   0  0  0  0  0  0
   10.9667    2.6402    7.1177 C   0  0  0  0  0  0
   10.5504    2.5978    8.5935 C   0  0  0  0  0  0
   10.8946    3.8611    9.4052 C   0  0  0  0  0  0
   12.4056    4.1306    9.4562 C   0  0  0  0  0  0
   10.3195    3.7611   10.8254 C   0  0  0  0  0  0
  -10.4293   -0.3082   -8.1081 H   0  0  0  0  0  0
  -10.2010   -1.7762   -7.1467 H   0  0  0  0  0  0
   -8.8310   -0.7041   -7.4600 H   0  0  0  0  0  0
   -9.9463    1.1095   -6.0968 H   0  0  0  0  0  0
  -11.3067    0.0460   -5.7857 H   0  0  0  0  0  0
   -9.7831   -1.5538   -4.5851 H   0  0  0  0  0  0
   -8.4205   -0.4922   -4.9000 H   0  0  0  0  0  0
   -9.5441    1.3390   -3.5904 H   0  0  0  0  0  0
  -10.9050    0.2778   -3.2717 H   0  0  0  0  0  0
   -9.3924   -1.3019   -2.0339 H   0  0  0  0  0  0
   -8.0223   -0.2597   -2.3812 H   0  0  0  0  0  0
   -9.0931    1.6034   -1.0975 H   0  0  0  0  0  0
  -10.5063    0.6050   -0.8032 H   0  0  0  0  0  0
   -9.1164    0.6515    1.1930 H   0  0  0  0  0  0
   -9.1415   -0.9830    0.5547 H   0  0  0  0  0  0
   -6.8730   -0.7256   -0.3762 H   0  0  0  0  0  0
   -6.8794    0.9946   -0.0268 H   0  0  0  0  0  0
   -6.9210    0.5498    2.4069 H   0  0  0  0  0  0
   -7.0896   -1.1755    2.1289 H   0  0  0  0  0  0
   -4.7771   -0.6144    2.7602 H   0  0  0  0  0  0
   -4.8315   -1.3036    1.1468 H   0  0  0  0  0  0
   -4.5108    0.8896    0.1069 H   0  0  0  0  0  0
   -4.7877    1.7188    1.6285 H   0  0  0  0  0  0
   -2.3988    1.7166    1.0716 H   0  0  0  0  0  0
   -2.6810    0.8352    2.5631 H   0  0  0  0  0  0
   -2.4356   -1.3304    1.4025 H   0  0  0  0  0  0
   -2.3364   -0.5332   -0.1588 H   0  0  0  0  0  0
   -0.2129    0.5657    0.4817 H   0  0  0  0  0  0
   -0.3395   -0.0520    2.1184 H   0  0  0  0  0  0
   -0.1013   -2.3852    1.3116 H   0  0  0  0  0  0
   -0.0626   -1.8420   -0.3578 H   0  0  0  0  0  0
    2.0448   -0.6052    0.0322 H   0  0  0  0  0  0
    1.9658   -0.9449    1.7513 H   0  0  0  0  0  0
    2.2926   -3.3575    1.3581 H   0  0  0  0  0  0
    2.1861   -3.1358   -0.3803 H   0  0  0  0  0  0
    4.5345   -3.4193    0.3221 H   0  0  0  0  0  0
    4.2875   -1.8458   -0.4166 H   0  0  0  0  0  0
    4.2380   -0.7526    1.8051 H   0  0  0  0  0  0
    4.3417   -2.3058    2.6141 H   0  0  0  0  0  0
    6.6183   -2.6743    1.7015 H   0  0  0  0  0  0
    6.4961   -1.2268    0.7148 H   0  0  0  0  0  0
    6.3208    0.1925    2.7543 H   0  0  0  0  0  0
    6.3988   -1.2277    3.7808 H   0  0  0  0  0  0
    8.7071   -1.7151    3.0151 H   0  0  0  0  0  0
    8.6324   -0.4079    1.8448 H   0  0  0  0  0  0
    8.3932    1.2672    3.6670 H   0  0  0  0  0  0
    8.3801   -0.0088    4.8708 H   0  0  0  0  0  0
   10.7147   -0.6092    4.3584 H   0  0  0  0  0  0
   10.7276    0.4457    2.9553 H   0  0  0  0  0  0
   11.9440    1.5313    4.7673 H   0  0  0  0  0  0
   10.4972    2.4527    4.3949 H   0  0  0  0  0  0
    9.3403    1.4312    6.3869 H   0  0  0  0  0  0
   10.7907    0.5119    6.7514 H   0  0  0  0  0  0
   12.0609    2.6700    7.0350 H   0  0  0  0  0  0
   10.6021    3.5745    6.6660 H   0  0  0  0  0  0
    9.4647    2.4347    8.6484 H   0  0  0  0  0  0
   11.0116    1.7244    9.0784 H   0  0  0  0  0  0
   10.4149    4.7165    8.9052 H   0  0  0  0  0  0
   12.9337    3.2821    9.9094 H   0  0  0  0  0  0
   12.6253    5.0184   10.0591 H   0  0  0  0  0  0
   12.8285    4.2943    8.4605 H   0  0  0  0  0  0
   10.7710    2.9215   11.3688 H   0  0  0  0  0  0
    9.2357    3.6016   10.8089 H   0  0  0  0  0  0
   10.5167    4.6723   11.4007 H   0  0  0  0  0  0
  1  2  1  0  0  0
  1 32  1  0  0  0
  1 33  1  0  0  0
  1 34  1  0  0  0
  2  3  1  0  0  0
  2 35  1  0  0  0
  2 36  1  0  0  0
  3  4  1  0  0  0
  3 37  1  0  0  0
  3 38  1  0  0  0
  4  5  1  0  0  0
  4 39  1  0  0  0
  4 40  1  0  0  0
  5  6  1  0  0  0
  5 41  1  0  0  0
  5 42  1  0  0  0
  6  7  1  0  0  0
  6 43  1  0  0  0
  6 44  1  0  0  0
  7  8  1  0  0  0
  7 45  1  0  0  0
  7 46  1  0  0  0
  8  9  1  0  0  0
  8 47  1  0  0  0
  8 48  1  0  0  0
  9 10  1  0  0  0
  9 49  1  0  0  0
  9 50  1  0  0  0
 10 11  1  0  0  0
 10 51  1  0  0  0
 10 52  1  0  0  0
 11 12  1  0  0  0
 11 53  1  0  0  0
 11 54  1  0  0  0
 12 13  1  0  0  0
 12 55  1  0  0  0
 12 56  1  0  0  0
 13 14  1  0  0  0
 13 57  1  0  0  0
 13 58  1  0  0  0
 14 15  1  0  0  0
 14 59  1  0  0  0
 14 60  1  0  0  0
 15 16  1  0  0  0
 15 61  1  0  0  0
 15 62  1  0  0  0
 16 17  1  0  0  0
 16 63  1  0  0  0
 16 64  1  0  0  0
 17 18  1  0  0  0
 17 65  1  0  0  0
 17 66  1  0  0  0
 18 19  1  0  0  0
 18 67  1  0  0  0
 18 68  1  0  0  0
 19 20  1  0  0  0
 19 69  1  0  0  0
 19 70  1  0  0  0
 20 21  1  0  0  0
 20 71  1  0  0  0
 20 72  1  0  0  0
 21 22  1  0  0  0
 21 73  1  0  0  0
 21 74  1  0  0  0
 22 23  1  0  0  0
 22 75  1  0  0  0
 22 76  1  0  0  0
 23 24  1  0  0  0
 23 77  1  0  0  0
 23 78  1  0  0  0
 24 25  1  0  0  0
 24 79  1  0  0  0
 24 80  1  0  0  0
 25 26  1  0  0  0
 25 81  1  0  0  0
 25 82  1  0  0  0
 26 27  1  0  0  0
 26 83  1  0  0  0
 26 84  1  0  0  0
 27 28  1  0  0  0
 27 85  1  0  0  0
 27 86  1  0  0  0
 28 29  1  0  0  0
 28 87  1  0  0  0
 28 88  1  0  0  0
 29 30  1  0  0  0
 29 31  1  0  0  0
 29 89  1  0  0  0
 30 90  1  0  0  0
 30 91  1  0  0  0
 30 92  1  0  0  0
 31 93  1  0  0  0
 31 94  1  0  0  0
 31 95  1  0  0  0
M  END
>  <i_m_Spin_multiplicity> (1)
1

>  <s_j_Task> (1)
Single Point

>  <s_j_QM_Method> (1)
DFT(b3lyp-d3)

>  <s_j_QM_Basis> (1)
cc-pvtz(-f)

>  <i_j_Number_of_canonical_orbitals> (1)
1278

>  <i_j_Geometry_convergence_category> (1)
4

>  <r_j_Gas_Phase_Energy> (1)
-1220.41321628354

>  <r_j_Final_Energy> (1)
-1220.41321628354

>  <r_j_HOMO> (1)
-0.285188173443266

>  <r_j_LUMO> (1)
0.00153686773332405

>  <r_j_Polarizability> (1)
385.692182861702

>  <r_j_QM_Dipole_(debye)> (1)
0.10807830424957

>  <r_j_QM_Dipole_X_(debye)> (1)
-0.0662952630674519

>  <r_j_QM_Dipole_Y_(debye)> (1)
0.0662672511127815

>  <r_j_QM_Dipole_Z_(debye)> (1)
-0.0538006447381033

>  <r_j_Lowest_Frequency_(cm-1)> (1)
17.6525450565842

>  <r_j_Highest_Frequency_(cm-1)> (1)
3053.73464286332

>  <r_j_2nd_Lowest_Frequency_(cm-1)> (1)
19.7807555768127

>  <i_j_Num_Negative_Frequencies> (1)
0

>  <r_j_Zero_Point_Energy_(kcal/mol)> (1)
565.313870989396

>  <r_j_Entropy_(cal/mol/K)_298.15K_1.00E+00atm> (1)
221.166673411908

>  <r_j_Enthalpy_(kcal/mol)_298.15K_1.00E+00atm> (1)
24.4020004357196

>  <r_j_Free_Energy_(kcal/mol)_298.15K_1.00E+00atm> (1)
-41.5388432420409

>  <r_j_Internal_Energy_(kcal/mol)_298.15K_1.00E+00atm> (1)
23.8095148468923

>  <r_j_Heat_Capacity_(cal/mol/K)_298.15K_1.00E+00atm> (1)
147.481055749485

>  <r_j_ln(Q)_298.15K_1.00E+00atm> (1)
70.1094575553476

>  <r_j_Total_Internal_Energy_(au)_298.15K_1.00E+00atm> (1)
-1219.47438840285

>  <r_j_Total_Enthalpy_(au)_298.15K_1.00E+00atm> (1)
-1219.47344421696

>  <r_j_Total_Free_Energy_(au)_298.15K_1.00E+00atm> (1)
-1219.57852764092

>  <r_lp_tautomer_probability> (1)
1

>  <r_epik_Ionization_Penalty> (1)
  0.0000

>  <r_epik_Ionization_Penalty_Charging> (1)
  0.0000

>  <r_epik_Ionization_Penalty_Neutral> (1)
  0.0000

>  <r_epik_State_Penalty> (1)
  0.0000

>  <r_epik_Charging_Adjusted_Penalty> (1)
0

>  <i_epik_Tot_Q> (1)
0

>  <i_epik_Tot_abs_Q> (1)
0

>  <s_lp_Force_Field> (1)
S-OPLS

>  <r_lp_Energy> (1)
17.606799

>  <b_lp_Chiralities_Consistent> (1)
1

$$$$
