7390_1-Methyl-4-t-butylbenzene
                    3D
 Schrodinger Suite 2021-3.
 27 27  0  0  1  0            999 V2000
   -0.1170   -0.0380    0.0004 C   0  0  0  0  0  0
    1.3931   -0.0003    0.0001 C   0  0  0  0  0  0
    2.1000    1.2023    0.0003 C   0  0  0  0  0  0
    3.4977    1.2259    0.0001 C   0  0  0  0  0  0
    4.2473    0.0454   -0.0003 C   0  0  0  0  0  0
    3.5289   -1.1632   -0.0006 C   0  0  0  0  0  0
    2.1391   -1.1873   -0.0003 C   0  0  0  0  0  0
    5.7854    0.0217   -0.0002 C   0  0  0  0  0  0
    6.2867   -0.7182    1.2617 C   0  0  0  0  0  0
    6.3930    1.4360   -0.0001 C   0  0  0  0  0  0
    6.2872   -0.7188   -1.2614 C   0  0  0  0  0  0
   -0.5447    0.9686    0.0006 H   0  0  0  0  0  0
   -0.5012   -0.5650    0.8815 H   0  0  0  0  0  0
   -0.5015   -0.5648   -0.8807 H   0  0  0  0  0  0
    1.5543    2.1430    0.0006 H   0  0  0  0  0  0
    3.9935    2.1899    0.0003 H   0  0  0  0  0  0
    4.0649   -2.1081   -0.0009 H   0  0  0  0  0  0
    1.6211   -2.1440   -0.0005 H   0  0  0  0  0  0
    7.3822   -0.7483    1.2787 H   0  0  0  0  0  0
    5.9250   -1.7499    1.2977 H   0  0  0  0  0  0
    5.9446   -0.2122    2.1703 H   0  0  0  0  0  0
    6.0962    2.0041    0.8875 H   0  0  0  0  0  0
    6.0958    2.0044   -0.8875 H   0  0  0  0  0  0
    7.4859    1.3692   -0.0004 H   0  0  0  0  0  0
    7.3827   -0.7493   -1.2774 H   0  0  0  0  0  0
    5.9460   -0.2129   -2.1703 H   0  0  0  0  0  0
    5.9251   -1.7503   -1.2972 H   0  0  0  0  0  0
  1  2  1  0  0  0
  1 12  1  0  0  0
  1 13  1  0  0  0
  1 14  1  0  0  0
  2  7  1  0  0  0
  2  3  2  0  0  0
  3  4  1  0  0  0
  3 15  1  0  0  0
  4  5  2  0  0  0
  4 16  1  0  0  0
  5  6  1  0  0  0
  5  8  1  0  0  0
  6  7  2  0  0  0
  6 17  1  0  0  0
  7 18  1  0  0  0
  8  9  1  0  0  0
  8 10  1  0  0  0
  8 11  1  0  0  0
  9 19  1  0  0  0
  9 20  1  0  0  0
  9 21  1  0  0  0
 10 22  1  0  0  0
 10 23  1  0  0  0
 10 24  1  0  0  0
 11 25  1  0  0  0
 11 26  1  0  0  0
 11 27  1  0  0  0
M  END
>  <i_m_Spin_multiplicity> (1)
1

>  <s_j_Task> (1)
Single Point

>  <s_j_QM_Method> (1)
DFT(b3lyp-d3)

>  <s_j_QM_Basis> (1)
cc-pvtz(-f)

>  <i_j_Number_of_canonical_orbitals> (1)
389

>  <i_j_Geometry_convergence_category> (1)
3

>  <r_j_Gas_Phase_Energy> (1)
-428.982492556846

>  <r_j_Final_Energy> (1)
-428.982492556846

>  <r_j_HOMO> (1)
-0.23503407458241

>  <r_j_LUMO> (1)
-0.00928032668081731

>  <r_j_Polarizability> (1)
128.04851915086

>  <r_j_QM_Dipole_(debye)> (1)
0.0751601108332033

>  <r_j_QM_Dipole_X_(debye)> (1)
-0.0384331714265216

>  <r_j_QM_Dipole_Y_(debye)> (1)
-0.0645896180475786

>  <r_j_QM_Dipole_Z_(debye)> (1)
0.000338873172309837

>  <r_j_Lowest_Frequency_(cm-1)> (1)
81.3021605694966

>  <r_j_Highest_Frequency_(cm-1)> (1)
3156.29000305571

>  <r_j_2nd_Lowest_Frequency_(cm-1)> (1)
107.019183016219

>  <i_j_Num_Negative_Frequencies> (1)
0

>  <r_j_Zero_Point_Energy_(kcal/mol)> (1)
150.514018192039

>  <r_j_Entropy_(cal/mol/K)_298.15K_1.00E+00atm> (1)
98.9724651109252

>  <r_j_Enthalpy_(kcal/mol)_298.15K_1.00E+00atm> (1)
7.40586867039438

>  <r_j_Free_Energy_(kcal/mol)_298.15K_1.00E+00atm> (1)
-22.102771802428

>  <r_j_Internal_Energy_(kcal/mol)_298.15K_1.00E+00atm> (1)
6.81338308156711

>  <r_j_Heat_Capacity_(cal/mol/K)_298.15K_1.00E+00atm> (1)
44.2218730712718

>  <r_j_ln(Q)_298.15K_1.00E+00atm> (1)
37.3051635672299

>  <r_j_Total_Internal_Energy_(au)_298.15K_1.00E+00atm> (1)
-428.731775382372

>  <r_j_Total_Enthalpy_(au)_298.15K_1.00E+00atm> (1)
-428.73083119648

>  <r_j_Total_Free_Energy_(au)_298.15K_1.00E+00atm> (1)
-428.777856208665

>  <r_lp_tautomer_probability> (1)
1

>  <r_epik_Ionization_Penalty> (1)
  0.0000

>  <r_epik_Ionization_Penalty_Charging> (1)
  0.0000

>  <r_epik_Ionization_Penalty_Neutral> (1)
  0.0000

>  <r_epik_State_Penalty> (1)
  0.0000

>  <r_epik_Charging_Adjusted_Penalty> (1)
0

>  <i_epik_Tot_Q> (1)
0

>  <i_epik_Tot_abs_Q> (1)
0

>  <s_lp_Force_Field> (1)
S-OPLS

>  <r_lp_Energy> (1)
9.1142

>  <b_lp_Chiralities_Consistent> (1)
1

$$$$
