74138_1-Docosene
                    3D
 Schrodinger Suite 2021-3.
 66 65  0  0  1  0            999 V2000
   -2.5936    9.9224    1.2961 C   0  0  0  0  0  0
   -2.1688    8.4514    1.2693 C   0  0  0  0  0  0
   -2.5265    7.7438   -0.0433 C   0  0  0  0  0  0
   -2.0975    6.2727   -0.0722 C   0  0  0  0  0  0
   -2.4622    5.5544   -1.3785 C   0  0  0  0  0  0
   -1.9447    4.1097   -1.4651 C   0  0  0  0  0  0
   -2.5785    3.1531   -0.4443 C   0  0  0  0  0  0
   -2.1046    1.6963   -0.5637 C   0  0  0  0  0  0
   -0.6132    1.4966   -0.2616 C   0  0  0  0  0  0
   -0.1904    0.0236   -0.2192 C   0  0  0  0  0  0
    1.3103   -0.1564    0.0446 C   0  0  0  0  0  0
    1.7854   -1.6167    0.0801 C   0  0  0  0  0  0
    1.2442   -2.4336    1.2614 C   0  0  0  0  0  0
    1.8308   -3.8481    1.3285 C   0  0  0  0  0  0
    1.3323   -4.6659    2.5255 C   0  0  0  0  0  0
    1.9583   -6.0630    2.6003 C   0  0  0  0  0  0
    1.5082   -6.8790    3.8174 C   0  0  0  0  0  0
    2.1740   -8.2577    3.8927 C   0  0  0  0  0  0
    1.7699   -9.0706    5.1272 C   0  0  0  0  0  0
    2.4761  -10.4377    5.1977 C   0  0  0  0  0  0
    2.0704  -11.2443    6.3993 C   0  0  0  0  0  0
    2.8877  -11.6371    7.3762 C   0  0  0  0  0  0
   -2.3274   10.4016    2.2440 H   0  0  0  0  0  0
   -3.6773   10.0223    1.1645 H   0  0  0  0  0  0
   -2.1110   10.4868    0.4898 H   0  0  0  0  0  0
   -1.0852    8.3781    1.4346 H   0  0  0  0  0  0
   -2.6391    7.9173    2.1064 H   0  0  0  0  0  0
   -3.6117    7.8113   -0.2081 H   0  0  0  0  0  0
   -2.0598    8.2781   -0.8834 H   0  0  0  0  0  0
   -1.0103    6.2090    0.0818 H   0  0  0  0  0  0
   -2.5543    5.7534    0.7802 H   0  0  0  0  0  0
   -3.5545    5.5609   -1.5043 H   0  0  0  0  0  0
   -2.0563    6.1287   -2.2223 H   0  0  0  0  0  0
   -2.1314    3.7195   -2.4752 H   0  0  0  0  0  0
   -0.8540    4.1191   -1.3396 H   0  0  0  0  0  0
   -2.3707    3.5058    0.5744 H   0  0  0  0  0  0
   -3.6705    3.1879   -0.5614 H   0  0  0  0  0  0
   -2.6916    1.0758    0.1271 H   0  0  0  0  0  0
   -2.3247    1.3188   -1.5726 H   0  0  0  0  0  0
   -0.0066    2.0210   -1.0114 H   0  0  0  0  0  0
   -0.3748    1.9677    0.7033 H   0  0  0  0  0  0
   -0.7737   -0.4932    0.5541 H   0  0  0  0  0  0
   -0.4508   -0.4610   -1.1714 H   0  0  0  0  0  0
    1.8698    0.3818   -0.7326 H   0  0  0  0  0  0
    1.5709    0.3303    0.9957 H   0  0  0  0  0  0
    1.5106   -2.1130   -0.8618 H   0  0  0  0  0  0
    2.8831   -1.6304    0.1196 H   0  0  0  0  0  0
    1.4686   -1.9030    2.1982 H   0  0  0  0  0  0
    0.1498   -2.5000    1.2051 H   0  0  0  0  0  0
    1.5971   -4.3843    0.3976 H   0  0  0  0  0  0
    2.9276   -3.7819    1.3703 H   0  0  0  0  0  0
    1.5523   -4.1199    3.4541 H   0  0  0  0  0  0
    0.2376   -4.7556    2.4794 H   0  0  0  0  0  0
    1.7213   -6.6182    1.6813 H   0  0  0  0  0  0
    3.0534   -5.9654    2.6188 H   0  0  0  0  0  0
    1.7336   -6.3166    4.7348 H   0  0  0  0  0  0
    0.4157   -6.9991    3.7964 H   0  0  0  0  0  0
    1.9328   -8.8291    2.9849 H   0  0  0  0  0  0
    3.2661   -8.1305    3.8875 H   0  0  0  0  0  0
    2.0016   -8.5017    6.0373 H   0  0  0  0  0  0
    0.6810   -9.2206    5.1299 H   0  0  0  0  0  0
    2.2396  -11.0003    4.2820 H   0  0  0  0  0  0
    3.5635  -10.2885    5.1996 H   0  0  0  0  0  0
    1.0116  -11.5019    6.4593 H   0  0  0  0  0  0
    3.9491  -11.3996    7.3596 H   0  0  0  0  0  0
    2.5305  -12.2098    8.2271 H   0  0  0  0  0  0
  1  2  1  0  0  0
  1 23  1  0  0  0
  1 24  1  0  0  0
  1 25  1  0  0  0
  2  3  1  0  0  0
  2 26  1  0  0  0
  2 27  1  0  0  0
  3  4  1  0  0  0
  3 28  1  0  0  0
  3 29  1  0  0  0
  4  5  1  0  0  0
  4 30  1  0  0  0
  4 31  1  0  0  0
  5  6  1  0  0  0
  5 32  1  0  0  0
  5 33  1  0  0  0
  6  7  1  0  0  0
  6 34  1  0  0  0
  6 35  1  0  0  0
  7  8  1  0  0  0
  7 36  1  0  0  0
  7 37  1  0  0  0
  8  9  1  0  0  0
  8 38  1  0  0  0
  8 39  1  0  0  0
  9 10  1  0  0  0
  9 40  1  0  0  0
  9 41  1  0  0  0
 10 11  1  0  0  0
 10 42  1  0  0  0
 10 43  1  0  0  0
 11 12  1  0  0  0
 11 44  1  0  0  0
 11 45  1  0  0  0
 12 13  1  0  0  0
 12 46  1  0  0  0
 12 47  1  0  0  0
 13 14  1  0  0  0
 13 48  1  0  0  0
 13 49  1  0  0  0
 14 15  1  0  0  0
 14 50  1  0  0  0
 14 51  1  0  0  0
 15 16  1  0  0  0
 15 52  1  0  0  0
 15 53  1  0  0  0
 16 17  1  0  0  0
 16 54  1  0  0  0
 16 55  1  0  0  0
 17 18  1  0  0  0
 17 56  1  0  0  0
 17 57  1  0  0  0
 18 19  1  0  0  0
 18 58  1  0  0  0
 18 59  1  0  0  0
 19 20  1  0  0  0
 19 60  1  0  0  0
 19 61  1  0  0  0
 20 21  1  0  0  0
 20 62  1  0  0  0
 20 63  1  0  0  0
 21 22  2  0  0  0
 21 64  1  0  0  0
 22 65  1  0  0  0
 22 66  1  0  0  0
M  END
>  <i_m_Spin_multiplicity> (1)
1

>  <s_j_Task> (1)
Single Point

>  <s_j_QM_Method> (1)
DFT(b3lyp-d3)

>  <s_j_QM_Basis> (1)
cc-pvtz(-f)

>  <i_j_Number_of_canonical_orbitals> (1)
895

>  <i_j_Geometry_convergence_category> (1)
3

>  <r_j_Gas_Phase_Energy> (1)
-865.212470254705

>  <r_j_Final_Energy> (1)
-865.212470254705

>  <r_j_HOMO> (1)
-0.270956857556925

>  <r_j_LUMO> (1)
-0.0872637432751713

>  <r_j_Polarizability> (1)
274.281969342901

>  <r_j_QM_Dipole_(debye)> (1)
0.453732574477176

>  <r_j_QM_Dipole_X_(debye)> (1)
-0.1111822660491

>  <r_j_QM_Dipole_Y_(debye)> (1)
0.256552966256094

>  <r_j_QM_Dipole_Z_(debye)> (1)
-0.357340633518038

>  <r_j_Lowest_Frequency_(cm-1)> (1)
23.7283701289887

>  <r_j_Highest_Frequency_(cm-1)> (1)
3166.9538310412

>  <r_j_2nd_Lowest_Frequency_(cm-1)> (1)
32.996396487828

>  <i_j_Num_Negative_Frequencies> (1)
0

>  <r_j_Zero_Point_Energy_(kcal/mol)> (1)
389.78574720051

>  <r_j_Entropy_(cal/mol/K)_298.15K_1.00E+00atm> (1)
173.6421292086

>  <r_j_Enthalpy_(kcal/mol)_298.15K_1.00E+00atm> (1)
17.3686482781818

>  <r_j_Free_Energy_(kcal/mol)_298.15K_1.00E+00atm> (1)
-34.4027525453621

>  <r_j_Internal_Energy_(kcal/mol)_298.15K_1.00E+00atm> (1)
16.7761626893546

>  <r_j_Heat_Capacity_(cal/mol/K)_298.15K_1.00E+00atm> (1)
102.597676022112

>  <r_j_ln(Q)_298.15K_1.00E+00atm> (1)
58.0651296742198

>  <r_j_Total_Internal_Energy_(au)_298.15K_1.00E+00atm> (1)
-864.564572606419

>  <r_j_Total_Enthalpy_(au)_298.15K_1.00E+00atm> (1)
-864.563628420527

>  <r_j_Total_Free_Energy_(au)_298.15K_1.00E+00atm> (1)
-864.646131399842

>  <r_lp_tautomer_probability> (1)
1

>  <r_epik_Ionization_Penalty> (1)
  0.0000

>  <r_epik_Ionization_Penalty_Charging> (1)
  0.0000

>  <r_epik_Ionization_Penalty_Neutral> (1)
  0.0000

>  <r_epik_State_Penalty> (1)
  0.0000

>  <r_epik_Charging_Adjusted_Penalty> (1)
0

>  <i_epik_Tot_Q> (1)
0

>  <i_epik_Tot_abs_Q> (1)
0

>  <s_lp_Force_Field> (1)
S-OPLS

>  <r_lp_Energy> (1)
9.13516

>  <b_lp_Chiralities_Consistent> (1)
1

$$$$
