74399_Iso-tritriacontane
                    3D
 Schrodinger Suite 2021-3.
101100  0  0  1  0            999 V2000
    1.5897   12.2377   13.7113 C   0  0  0  0  0  0
    1.2881   12.2423   12.2098 C   0  0  0  0  0  0
    0.8267   10.8781   11.6820 C   0  0  0  0  0  0
    0.5232   10.8841   10.1797 C   0  0  0  0  0  0
    0.0619    9.5279    9.6328 C   0  0  0  0  0  0
   -0.2354    9.5623    8.1293 C   0  0  0  0  0  0
   -0.6956    8.2194    7.5494 C   0  0  0  0  0  0
   -0.9829    8.2932    6.0452 C   0  0  0  0  0  0
   -1.4414    6.9683    5.4243 C   0  0  0  0  0  0
   -1.7053    7.0911    3.9174 C   0  0  0  0  0  0
   -2.2292    5.8162    3.2403 C   0  0  0  0  0  0
   -1.2552    4.6294    3.2722 C   0  0  0  0  0  0
   -1.6932    3.4741    2.3638 C   0  0  0  0  0  0
   -0.7542    2.2622    2.4081 C   0  0  0  0  0  0
   -1.1034    1.2013    1.3552 C   0  0  0  0  0  0
   -0.2640   -0.0832    1.4339 C   0  0  0  0  0  0
    1.2502    0.1499    1.3077 C   0  0  0  0  0  0
    2.0641   -1.1253    1.0408 C   0  0  0  0  0  0
    1.8905   -2.2299    2.0924 C   0  0  0  0  0  0
    2.8528   -3.4053    1.8803 C   0  0  0  0  0  0
    2.5767   -4.6058    2.7932 C   0  0  0  0  0  0
    3.6130   -5.7263    2.6429 C   0  0  0  0  0  0
    3.2595   -7.0037    3.4143 C   0  0  0  0  0  0
    4.3699   -8.0628    3.3544 C   0  0  0  0  0  0
    3.9684   -9.4439    3.8935 C   0  0  0  0  0  0
    3.5033   -9.4530    5.3558 C   0  0  0  0  0  0
    3.2547  -10.8718    5.8869 C   0  0  0  0  0  0
    2.7147  -10.9320    7.3247 C   0  0  0  0  0  0
    1.2766  -10.4158    7.4765 C   0  0  0  0  0  0
    0.7415  -10.5456    8.9081 C   0  0  0  0  0  0
   -0.7471  -10.1883    9.0824 C   0  0  0  0  0  0
   -1.0454   -8.7268    8.7164 C   0  0  0  0  0  0
   -1.2057  -10.4857   10.5172 C   0  0  0  0  0  0
    1.9167   13.2232   14.0595 H   0  0  0  0  0  0
    2.3816   11.5191   13.9522 H   0  0  0  0  0  0
    0.7027   11.9566   14.2908 H   0  0  0  0  0  0
    0.5160   12.9930   11.9920 H   0  0  0  0  0  0
    2.1826   12.5592   11.6559 H   0  0  0  0  0  0
    1.5991   10.1254   11.8962 H   0  0  0  0  0  0
   -0.0685   10.5584   12.2348 H   0  0  0  0  0  0
   -0.2477   11.6395    9.9696 H   0  0  0  0  0  0
    1.4194   11.2086    9.6312 H   0  0  0  0  0  0
    0.8325    8.7705    9.8362 H   0  0  0  0  0  0
   -0.8361    9.2005   10.1761 H   0  0  0  0  0  0
   -1.0042   10.3231    7.9312 H   0  0  0  0  0  0
    0.6636    9.8972    7.5919 H   0  0  0  0  0  0
    0.0726    7.4561    7.7389 H   0  0  0  0  0  0
   -1.5976    7.8809    8.0791 H   0  0  0  0  0  0
   -1.7478    9.0616    5.8619 H   0  0  0  0  0  0
   -0.0791    8.6402    5.5236 H   0  0  0  0  0  0
   -0.6800    6.1994    5.6106 H   0  0  0  0  0  0
   -2.3554    6.6218    5.9283 H   0  0  0  0  0  0
   -2.4270    7.9029    3.7522 H   0  0  0  0  0  0
   -0.7781    7.4062    3.4169 H   0  0  0  0  0  0
   -3.1803    5.5174    3.7037 H   0  0  0  0  0  0
   -2.4642    6.0502    2.1927 H   0  0  0  0  0  0
   -0.2575    4.9713    2.9596 H   0  0  0  0  0  0
   -1.1417    4.2628    4.3010 H   0  0  0  0  0  0
   -2.7105    3.1571    2.6348 H   0  0  0  0  0  0
   -1.7586    3.8416    1.3294 H   0  0  0  0  0  0
    0.2781    2.6041    2.2563 H   0  0  0  0  0  0
   -0.7811    1.8114    3.4108 H   0  0  0  0  0  0
   -2.1663    0.9394    1.4490 H   0  0  0  0  0  0
   -0.9876    1.6452    0.3558 H   0  0  0  0  0  0
   -0.4777   -0.5971    2.3804 H   0  0  0  0  0  0
   -0.5894   -0.7667    0.6369 H   0  0  0  0  0  0
    1.4362    0.8640    0.4929 H   0  0  0  0  0  0
    1.6244    0.6292    2.2220 H   0  0  0  0  0  0
    1.7889   -1.5297    0.0560 H   0  0  0  0  0  0
    3.1280   -0.8595    0.9722 H   0  0  0  0  0  0
    2.0424   -1.8110    3.0978 H   0  0  0  0  0  0
    0.8570   -2.6002    2.0708 H   0  0  0  0  0  0
    2.7967   -3.7353    0.8329 H   0  0  0  0  0  0
    3.8853   -3.0585    2.0306 H   0  0  0  0  0  0
    2.5492   -4.2756    3.8416 H   0  0  0  0  0  0
    1.5743   -5.0012    2.5742 H   0  0  0  0  0  0
    3.7304   -5.9735    1.5779 H   0  0  0  0  0  0
    4.5938   -5.3569    2.9753 H   0  0  0  0  0  0
    3.0458   -6.7486    4.4607 H   0  0  0  0  0  0
    2.3283   -7.4249    3.0079 H   0  0  0  0  0  0
    4.6977   -8.1756    2.3117 H   0  0  0  0  0  0
    5.2452   -7.6942    3.9081 H   0  0  0  0  0  0
    3.1666   -9.8566    3.2642 H   0  0  0  0  0  0
    4.8208  -10.1285    3.7841 H   0  0  0  0  0  0
    4.2576   -8.9584    5.9855 H   0  0  0  0  0  0
    2.5889   -8.8556    5.4494 H   0  0  0  0  0  0
    2.5509  -11.3897    5.2190 H   0  0  0  0  0  0
    4.1948  -11.4371    5.8306 H   0  0  0  0  0  0
    2.7528  -11.9720    7.6762 H   0  0  0  0  0  0
    3.3796  -10.3627    7.9902 H   0  0  0  0  0  0
    1.2264   -9.3683    7.1579 H   0  0  0  0  0  0
    0.6216  -10.9754    6.7925 H   0  0  0  0  0  0
    0.8937  -11.5795    9.2493 H   0  0  0  0  0  0
    1.3411   -9.9141    9.5809 H   0  0  0  0  0  0
   -1.3244  -10.8324    8.4014 H   0  0  0  0  0  0
   -0.4553   -8.0444    9.3414 H   0  0  0  0  0  0
   -2.1033   -8.4910    8.8753 H   0  0  0  0  0  0
   -0.8120   -8.5078    7.6701 H   0  0  0  0  0  0
   -0.6577   -9.8641   11.2364 H   0  0  0  0  0  0
   -1.0321  -11.5340   10.7842 H   0  0  0  0  0  0
   -2.2736  -10.2781   10.6457 H   0  0  0  0  0  0
  1  2  1  0  0  0
  1 34  1  0  0  0
  1 35  1  0  0  0
  1 36  1  0  0  0
  2  3  1  0  0  0
  2 37  1  0  0  0
  2 38  1  0  0  0
  3  4  1  0  0  0
  3 39  1  0  0  0
  3 40  1  0  0  0
  4  5  1  0  0  0
  4 41  1  0  0  0
  4 42  1  0  0  0
  5  6  1  0  0  0
  5 43  1  0  0  0
  5 44  1  0  0  0
  6  7  1  0  0  0
  6 45  1  0  0  0
  6 46  1  0  0  0
  7  8  1  0  0  0
  7 47  1  0  0  0
  7 48  1  0  0  0
  8  9  1  0  0  0
  8 49  1  0  0  0
  8 50  1  0  0  0
  9 10  1  0  0  0
  9 51  1  0  0  0
  9 52  1  0  0  0
 10 11  1  0  0  0
 10 53  1  0  0  0
 10 54  1  0  0  0
 11 12  1  0  0  0
 11 55  1  0  0  0
 11 56  1  0  0  0
 12 13  1  0  0  0
 12 57  1  0  0  0
 12 58  1  0  0  0
 13 14  1  0  0  0
 13 59  1  0  0  0
 13 60  1  0  0  0
 14 15  1  0  0  0
 14 61  1  0  0  0
 14 62  1  0  0  0
 15 16  1  0  0  0
 15 63  1  0  0  0
 15 64  1  0  0  0
 16 17  1  0  0  0
 16 65  1  0  0  0
 16 66  1  0  0  0
 17 18  1  0  0  0
 17 67  1  0  0  0
 17 68  1  0  0  0
 18 19  1  0  0  0
 18 69  1  0  0  0
 18 70  1  0  0  0
 19 20  1  0  0  0
 19 71  1  0  0  0
 19 72  1  0  0  0
 20 21  1  0  0  0
 20 73  1  0  0  0
 20 74  1  0  0  0
 21 22  1  0  0  0
 21 75  1  0  0  0
 21 76  1  0  0  0
 22 23  1  0  0  0
 22 77  1  0  0  0
 22 78  1  0  0  0
 23 24  1  0  0  0
 23 79  1  0  0  0
 23 80  1  0  0  0
 24 25  1  0  0  0
 24 81  1  0  0  0
 24 82  1  0  0  0
 25 26  1  0  0  0
 25 83  1  0  0  0
 25 84  1  0  0  0
 26 27  1  0  0  0
 26 85  1  0  0  0
 26 86  1  0  0  0
 27 28  1  0  0  0
 27 87  1  0  0  0
 27 88  1  0  0  0
 28 29  1  0  0  0
 28 89  1  0  0  0
 28 90  1  0  0  0
 29 30  1  0  0  0
 29 91  1  0  0  0
 29 92  1  0  0  0
 30 31  1  0  0  0
 30 93  1  0  0  0
 30 94  1  0  0  0
 31 32  1  0  0  0
 31 33  1  0  0  0
 31 95  1  0  0  0
 32 96  1  0  0  0
 32 97  1  0  0  0
 32 98  1  0  0  0
 33 99  1  0  0  0
 33100  1  0  0  0
 33101  1  0  0  0
M  END
>  <i_m_Spin_multiplicity> (1)
1

>  <s_j_Task> (1)
Single Point

>  <s_j_QM_Method> (1)
DFT(b3lyp-d3)

>  <s_j_QM_Basis> (1)
cc-pvtz(-f)

>  <i_j_Number_of_canonical_orbitals> (1)
1361

>  <i_j_Geometry_convergence_category> (1)
4

>  <r_j_Gas_Phase_Energy> (1)
-1299.07219853646

>  <r_j_Final_Energy> (1)
-1299.07219853646

>  <r_j_HOMO> (1)
-0.287710748756055

>  <r_j_LUMO> (1)
-0.0733804196456527

>  <r_j_Polarizability> (1)
410.636924573625

>  <r_j_QM_Dipole_(debye)> (1)
0.160092609290717

>  <r_j_QM_Dipole_X_(debye)> (1)
-0.0108490651954891

>  <r_j_QM_Dipole_Y_(debye)> (1)
-0.049862834024273

>  <r_j_QM_Dipole_Z_(debye)> (1)
-0.151742015002313

>  <r_j_Lowest_Frequency_(cm-1)> (1)
14.5299170738403

>  <r_j_Highest_Frequency_(cm-1)> (1)
3053.1771271097

>  <r_j_2nd_Lowest_Frequency_(cm-1)> (1)
20.8183784907798

>  <i_j_Num_Negative_Frequencies> (1)
0

>  <r_j_Zero_Point_Energy_(kcal/mol)> (1)
600.998504481874

>  <r_j_Entropy_(cal/mol/K)_298.15K_1.00E+00atm> (1)
231.803761395062

>  <r_j_Enthalpy_(kcal/mol)_298.15K_1.00E+00atm> (1)
25.9365336165108

>  <r_j_Free_Energy_(kcal/mol)_298.15K_1.00E+00atm> (1)
-43.1757578434269

>  <r_j_Internal_Energy_(kcal/mol)_298.15K_1.00E+00atm> (1)
25.3440480276835

>  <r_j_Heat_Capacity_(cal/mol/K)_298.15K_1.00E+00atm> (1)
156.990537868504

>  <r_j_ln(Q)_298.15K_1.00E+00atm> (1)
72.8722498194193

>  <r_j_Total_Internal_Energy_(au)_298.15K_1.00E+00atm> (1)
-1298.07405813787

>  <r_j_Total_Enthalpy_(au)_298.15K_1.00E+00atm> (1)
-1298.07311395197

>  <r_j_Total_Free_Energy_(au)_298.15K_1.00E+00atm> (1)
-1298.18325139972

>  <r_lp_tautomer_probability> (1)
1

>  <r_epik_Ionization_Penalty> (1)
  0.0000

>  <r_epik_Ionization_Penalty_Charging> (1)
  0.0000

>  <r_epik_Ionization_Penalty_Neutral> (1)
  0.0000

>  <r_epik_State_Penalty> (1)
  0.0000

>  <r_epik_Charging_Adjusted_Penalty> (1)
0

>  <i_epik_Tot_Q> (1)
0

>  <i_epik_Tot_abs_Q> (1)
0

>  <s_lp_Force_Field> (1)
S-OPLS

>  <r_lp_Energy> (1)
19.077792

>  <b_lp_Chiralities_Consistent> (1)
1

$$$$
