7450_1,3-diisopropylbenzene
                    3D
 Schrodinger Suite 2021-3.
 30 30  0  0  1  0            999 V2000
   -0.6078   -0.7744   -1.1978 C   0  0  0  0  0  0
   -0.0411   -0.0055    0.0092 C   0  0  0  0  0  0
   -0.6094    1.4236    0.0697 C   0  0  0  0  0  0
    1.4816   -0.0047    0.0090 C   0  0  0  0  0  0
    2.2029    0.5951   -1.0305 C   0  0  0  0  0  0
    3.6028    0.6070   -1.0518 C   0  0  0  0  0  0
    4.2881   -0.0028    0.0051 C   0  0  0  0  0  0
    3.5892   -0.6052    1.0498 C   0  0  0  0  0  0
    2.1954   -0.6061    1.0517 C   0  0  0  0  0  0
    4.3647    1.2659   -2.1938 C   0  0  0  0  0  0
    4.0776    2.7761   -2.2705 C   0  0  0  0  0  0
    4.0734    0.5798   -3.5405 C   0  0  0  0  0  0
   -0.2258   -1.7995   -1.2268 H   0  0  0  0  0  0
   -0.3302   -0.2883   -2.1396 H   0  0  0  0  0  0
   -1.7017   -0.8157   -1.1538 H   0  0  0  0  0  0
   -0.3660   -0.5296    0.9177 H   0  0  0  0  0  0
   -0.2280    1.9629    0.9421 H   0  0  0  0  0  0
   -1.7033    1.4050    0.1274 H   0  0  0  0  0  0
   -0.3325    1.9953   -0.8230 H   0  0  0  0  0  0
    1.6591    1.0657   -1.8460 H   0  0  0  0  0  0
    5.3754   -0.0047    0.0080 H   0  0  0  0  0  0
    4.1326   -1.0754    1.8649 H   0  0  0  0  0  0
    1.6547   -1.0775    1.8688 H   0  0  0  0  0  0
    5.4356    1.1428   -1.9844 H   0  0  0  0  0  0
    4.3104    3.2704   -1.3223 H   0  0  0  0  0  0
    3.0220    2.9651   -2.4947 H   0  0  0  0  0  0
    4.6751    3.2460   -3.0595 H   0  0  0  0  0  0
    4.3028   -0.4893   -3.4962 H   0  0  0  0  0  0
    4.6711    1.0273   -4.3423 H   0  0  0  0  0  0
    3.0177    0.6833   -3.8145 H   0  0  0  0  0  0
  1  2  1  0  0  0
  1 13  1  0  0  0
  1 14  1  0  0  0
  1 15  1  0  0  0
  2  3  1  0  0  0
  2  4  1  0  0  0
  2 16  1  0  0  0
  3 17  1  0  0  0
  3 18  1  0  0  0
  3 19  1  0  0  0
  4  9  1  0  0  0
  4  5  2  0  0  0
  5  6  1  0  0  0
  5 20  1  0  0  0
  6  7  2  0  0  0
  6 10  1  0  0  0
  7  8  1  0  0  0
  7 21  1  0  0  0
  8  9  2  0  0  0
  8 22  1  0  0  0
  9 23  1  0  0  0
 10 11  1  0  0  0
 10 12  1  0  0  0
 10 24  1  0  0  0
 11 25  1  0  0  0
 11 26  1  0  0  0
 11 27  1  0  0  0
 12 28  1  0  0  0
 12 29  1  0  0  0
 12 30  1  0  0  0
M  END
>  <i_m_Spin_multiplicity> (1)
1

>  <s_j_Task> (1)
Single Point

>  <s_j_QM_Method> (1)
DFT(b3lyp-d3)

>  <s_j_QM_Basis> (1)
cc-pvtz(-f)

>  <i_j_Number_of_canonical_orbitals> (1)
431

>  <i_j_Geometry_convergence_category> (1)
3

>  <r_j_Gas_Phase_Energy> (1)
-468.314356699701

>  <r_j_Final_Energy> (1)
-468.314356699701

>  <r_j_HOMO> (1)
-0.236700491677334

>  <r_j_LUMO> (1)
-0.00767003419952613

>  <r_j_Polarizability> (1)
139.681631977739

>  <r_j_QM_Dipole_(debye)> (1)
0.227534234103536

>  <r_j_QM_Dipole_X_(debye)> (1)
-0.113984162004918

>  <r_j_QM_Dipole_Y_(debye)> (1)
0.0982558810905183

>  <r_j_QM_Dipole_Z_(debye)> (1)
-0.170661127185558

>  <r_j_Lowest_Frequency_(cm-1)> (1)
70.4695411471618

>  <r_j_Highest_Frequency_(cm-1)> (1)
3135.88025407711

>  <r_j_2nd_Lowest_Frequency_(cm-1)> (1)
81.4192713144144

>  <i_j_Num_Negative_Frequencies> (1)
0

>  <r_j_Zero_Point_Energy_(kcal/mol)> (1)
168.583098898931

>  <r_j_Entropy_(cal/mol/K)_298.15K_1.00E+00atm> (1)
105.780388957787

>  <r_j_Enthalpy_(kcal/mol)_298.15K_1.00E+00atm> (1)
8.22943109210753

>  <r_j_Free_Energy_(kcal/mol)_298.15K_1.00E+00atm> (1)
-23.3089918756568

>  <r_j_Internal_Energy_(kcal/mol)_298.15K_1.00E+00atm> (1)
7.63694550328025

>  <r_j_Heat_Capacity_(cal/mol/K)_298.15K_1.00E+00atm> (1)
48.6376747310871

>  <r_j_ln(Q)_298.15K_1.00E+00atm> (1)
39.3410275544305

>  <r_j_Total_Internal_Energy_(au)_298.15K_1.00E+00atm> (1)
-468.033532181782

>  <r_j_Total_Enthalpy_(au)_298.15K_1.00E+00atm> (1)
-468.03258799589

>  <r_j_Total_Free_Energy_(au)_298.15K_1.00E+00atm> (1)
-468.082847672397

>  <r_lp_tautomer_probability> (1)
1

>  <r_epik_Ionization_Penalty> (1)
  0.0000

>  <r_epik_Ionization_Penalty_Charging> (1)
  0.0000

>  <r_epik_Ionization_Penalty_Neutral> (1)
  0.0000

>  <r_epik_State_Penalty> (1)
  0.0000

>  <r_epik_Charging_Adjusted_Penalty> (1)
0

>  <i_epik_Tot_Q> (1)
0

>  <i_epik_Tot_abs_Q> (1)
0

>  <s_lp_Force_Field> (1)
S-OPLS

>  <r_lp_Energy> (1)
13.9119

>  <b_lp_Chiralities_Consistent> (1)
1

$$$$
