7461_Gamma-Terpinene
                    3D
 Schrodinger Suite 2021-3.
 26 26  0  0  1  0            999 V2000
   -4.4209    0.1019   -0.0007 C   0  0  0  0  0  0
   -2.9072    0.0166   -0.0002 C   0  0  0  0  0  0
   -2.2605   -1.1523    0.0009 C   0  0  0  0  0  0
   -0.7632   -1.3061    0.0020 C   0  0  0  0  0  0
   -0.0086    0.0055    0.0007 C   0  0  0  0  0  0
   -0.6604    1.1736   -0.0004 C   0  0  0  0  0  0
   -2.1557    1.3246   -0.0010 C   0  0  0  0  0  0
    1.5112   -0.0432    0.0005 C   0  0  0  0  0  0
    2.0717   -0.7159   -1.2674 C   0  0  0  0  0  0
    2.0724   -0.7197    1.2660 C   0  0  0  0  0  0
   -4.7637    1.1414   -0.0031 H   0  0  0  0  0  0
   -4.8513   -0.3830    0.8826 H   0  0  0  0  0  0
   -4.8511   -0.3870   -0.8820 H   0  0  0  0  0  0
   -2.8356   -2.0782    0.0016 H   0  0  0  0  0  0
   -0.4585   -1.9092    0.8721 H   0  0  0  0  0  0
   -0.4574   -1.9118   -0.8659 H   0  0  0  0  0  0
   -0.0866    2.0998   -0.0012 H   0  0  0  0  0  0
   -2.4715    1.9252   -0.8712 H   0  0  0  0  0  0
   -2.4721    1.9268    0.8678 H   0  0  0  0  0  0
    1.8631    0.9970    0.0019 H   0  0  0  0  0  0
    1.6816   -0.2391   -2.1722 H   0  0  0  0  0  0
    1.8108   -1.7791   -1.3061 H   0  0  0  0  0  0
    3.1648   -0.6468   -1.2883 H   0  0  0  0  0  0
    1.6823   -0.2462    2.1726 H   0  0  0  0  0  0
    3.1654   -0.6497    1.2869 H   0  0  0  0  0  0
    1.8124   -1.7832    1.3013 H   0  0  0  0  0  0
  1  2  1  0  0  0
  1 11  1  0  0  0
  1 12  1  0  0  0
  1 13  1  0  0  0
  2  7  1  0  0  0
  2  3  2  0  0  0
  3  4  1  0  0  0
  3 14  1  0  0  0
  4  5  1  0  0  0
  4 15  1  0  0  0
  4 16  1  0  0  0
  5  6  2  0  0  0
  5  8  1  0  0  0
  6  7  1  0  0  0
  6 17  1  0  0  0
  7 18  1  0  0  0
  7 19  1  0  0  0
  8  9  1  0  0  0
  8 10  1  0  0  0
  8 20  1  0  0  0
  9 21  1  0  0  0
  9 22  1  0  0  0
  9 23  1  0  0  0
 10 24  1  0  0  0
 10 25  1  0  0  0
 10 26  1  0  0  0
M  END
>  <i_m_Spin_multiplicity> (1)
1

>  <s_j_Task> (1)
Single Point

>  <s_j_QM_Method> (1)
DFT(b3lyp-d3)

>  <s_j_QM_Basis> (1)
cc-pvtz(-f)

>  <i_j_Number_of_canonical_orbitals> (1)
369

>  <i_j_Geometry_convergence_category> (1)
0

>  <r_j_Gas_Phase_Energy> (1)
-390.829191982011

>  <r_j_Final_Energy> (1)
-390.829191982011

>  <r_j_HOMO> (1)
-0.224549589164652

>  <r_j_LUMO> (1)
0.00930790466800703

>  <r_j_Polarizability> (1)
115.715421472798

>  <r_j_QM_Dipole_(debye)> (1)
0.0769510487107208

>  <r_j_QM_Dipole_X_(debye)> (1)
-0.0594379522759371

>  <r_j_QM_Dipole_Y_(debye)> (1)
0.0488709634198683

>  <r_j_QM_Dipole_Z_(debye)> (1)
0.000471870042541928

>  <r_j_Lowest_Frequency_(cm-1)> (1)
-67.0267097012448

>  <r_j_Highest_Frequency_(cm-1)> (1)
3087.5394722756

>  <r_j_2nd_Lowest_Frequency_(cm-1)> (1)
75.4878440587488

>  <i_j_Num_Negative_Frequencies> (1)
1

>  <r_j_Zero_Point_Energy_(kcal/mol)> (1)
146.305064523909

>  <r_j_Entropy_(cal/mol/K)_298.15K_1.00E+00atm> (1)
95.3812545315503

>  <r_j_Enthalpy_(kcal/mol)_298.15K_1.00E+00atm> (1)
6.80906675787429

>  <r_j_Free_Energy_(kcal/mol)_298.15K_1.00E+00atm> (1)
-21.6288542807074

>  <r_j_Internal_Energy_(kcal/mol)_298.15K_1.00E+00atm> (1)
6.21658116904701

>  <r_j_Heat_Capacity_(cal/mol/K)_298.15K_1.00E+00atm> (1)
39.4560447732487

>  <r_j_ln(Q)_298.15K_1.00E+00atm> (1)
36.5052833158661

>  <r_j_Total_Internal_Energy_(au)_298.15K_1.00E+00atm> (1)
-390.586133266589

>  <r_j_Total_Enthalpy_(au)_298.15K_1.00E+00atm> (1)
-390.585189080697

>  <r_j_Total_Free_Energy_(au)_298.15K_1.00E+00atm> (1)
-390.630507792841

>  <r_lp_tautomer_probability> (1)
1

>  <r_epik_Ionization_Penalty> (1)
  0.0000

>  <r_epik_Ionization_Penalty_Charging> (1)
  0.0000

>  <r_epik_Ionization_Penalty_Neutral> (1)
  0.0000

>  <r_epik_State_Penalty> (1)
  0.0000

>  <r_epik_Charging_Adjusted_Penalty> (1)
0

>  <i_epik_Tot_Q> (1)
0

>  <i_epik_Tot_abs_Q> (1)
0

>  <s_lp_Force_Field> (1)
S-OPLS

>  <r_lp_Energy> (1)
-0.284992

>  <b_lp_Chiralities_Consistent> (1)
1

$$$$
