7469_Hydroxyacetophenone
                    3D
 Schrodinger Suite 2021-3.
 18 18  0  0  1  0            999 V2000
   -0.5655    1.0243   -0.0002 O   0  0  0  0  0  0
    0.0291   -0.0460   -0.0001 C   0  0  0  0  0  0
    1.5217   -0.0839   -0.0001 C   0  0  0  0  0  0
    2.2063    1.1471    0.0000 C   0  0  0  0  0  0
    3.5889    1.2054    0.0001 C   0  0  0  0  0  0
    4.3313    0.0161    0.0000 C   0  0  0  0  0  0
    5.6874    0.1284    0.0001 O   0  0  0  0  0  0
    3.6728   -1.2187    0.0000 C   0  0  0  0  0  0
    2.2821   -1.2626   -0.0001 C   0  0  0  0  0  0
   -0.7901   -1.3313    0.0001 C   0  0  0  0  0  0
    1.6148    2.0564    0.0001 H   0  0  0  0  0  0
    4.1177    2.1524    0.0001 H   0  0  0  0  0  0
    6.0859   -0.7524    0.0001 H   0  0  0  0  0  0
    4.2501   -2.1407   -0.0001 H   0  0  0  0  0  0
    1.7983   -2.2327   -0.0001 H   0  0  0  0  0  0
   -0.2157   -2.2573    0.0002 H   0  0  0  0  0  0
   -1.4406   -1.3172   -0.8795 H   0  0  0  0  0  0
   -1.4405   -1.3170    0.8797 H   0  0  0  0  0  0
  1  2  2  0  0  0
  2  3  1  0  0  0
  2 10  1  0  0  0
  3  9  1  0  0  0
  3  4  2  0  0  0
  4  5  1  0  0  0
  4 11  1  0  0  0
  5  6  2  0  0  0
  5 12  1  0  0  0
  6  7  1  0  0  0
  6  8  1  0  0  0
  7 13  1  0  0  0
  8  9  2  0  0  0
  8 14  1  0  0  0
  9 15  1  0  0  0
 10 16  1  0  0  0
 10 17  1  0  0  0
 10 18  1  0  0  0
M  END
>  <i_m_Spin_multiplicity> (1)
1

>  <s_j_Task> (1)
Single Point

>  <s_j_QM_Method> (1)
DFT(b3lyp-d3)

>  <s_j_QM_Basis> (1)
cc-pvtz(-f)

>  <i_j_Number_of_canonical_orbitals> (1)
296

>  <i_j_Geometry_convergence_category> (1)
0

>  <r_j_Gas_Phase_Energy> (1)
-460.284081595682

>  <r_j_Final_Energy> (1)
-460.284081595682

>  <r_j_HOMO> (1)
-0.244577703407907

>  <r_j_LUMO> (1)
-0.0595255690968257

>  <r_j_Polarizability> (1)
99.3782546164014

>  <r_j_QM_Dipole_(debye)> (1)
4.36671572151555

>  <r_j_QM_Dipole_X_(debye)> (1)
2.62666596451782

>  <r_j_QM_Dipole_Y_(debye)> (1)
-3.4883853030974

>  <r_j_QM_Dipole_Z_(debye)> (1)
0.000283740705419807

>  <r_j_Lowest_Frequency_(cm-1)> (1)
83.3028172211924

>  <r_j_Highest_Frequency_(cm-1)> (1)
3763.0230060525

>  <r_j_2nd_Lowest_Frequency_(cm-1)> (1)
111.083128927086

>  <i_j_Num_Negative_Frequencies> (1)
0

>  <r_j_Zero_Point_Energy_(kcal/mol)> (1)
88.7921797887894

>  <r_j_Entropy_(cal/mol/K)_298.15K_1.00E+00atm> (1)
91.5683949421555

>  <r_j_Enthalpy_(kcal/mol)_298.15K_1.00E+00atm> (1)
6.10231829915834

>  <r_j_Free_Energy_(kcal/mol)_298.15K_1.00E+00atm> (1)
-21.1987986528453

>  <r_j_Internal_Energy_(kcal/mol)_298.15K_1.00E+00atm> (1)
5.50983271033106

>  <r_j_Heat_Capacity_(cal/mol/K)_298.15K_1.00E+00atm> (1)
33.7714804743637

>  <r_j_ln(Q)_298.15K_1.00E+00atm> (1)
35.7794333779574

>  <r_j_Total_Internal_Energy_(au)_298.15K_1.00E+00atm> (1)
-460.133801772018

>  <r_j_Total_Enthalpy_(au)_298.15K_1.00E+00atm> (1)
-460.132857586126

>  <r_j_Total_Free_Energy_(au)_298.15K_1.00E+00atm> (1)
-460.176364685632

>  <r_lp_tautomer_probability> (1)
0.99995

>  <r_epik_Ionization_Penalty> (1)
  0.0430

>  <r_epik_Ionization_Penalty_Charging> (1)
  0.0000

>  <r_epik_Ionization_Penalty_Neutral> (1)
  0.0430

>  <r_epik_State_Penalty> (1)
  0.0364

>  <r_epik_Charging_Adjusted_Penalty> (1)
0.0363694

>  <i_epik_Tot_Q> (1)
0

>  <i_epik_Tot_abs_Q> (1)
0

>  <s_lp_Force_Field> (1)
S-OPLS

>  <r_lp_Energy> (1)
7.22475

>  <b_lp_Chiralities_Consistent> (1)
1

$$$$
