7470_p-Toluic acid
                    3D
 Schrodinger Suite 2021-3.
 17 17  0  0  1  0            999 V2000
   -0.0291   -0.0046    0.0000 C   0  0  0  0  0  0
    1.4839    0.0062    0.0001 C   0  0  0  0  0  0
    2.2055    1.2062    0.0001 C   0  0  0  0  0  0
    3.6021    1.2046    0.0000 C   0  0  0  0  0  0
    4.3223    0.0075    0.0000 C   0  0  0  0  0  0
    3.6011   -1.1927    0.0000 C   0  0  0  0  0  0
    2.2075   -1.1960    0.0000 C   0  0  0  0  0  0
    5.8783    0.0065    0.0000 C   0  0  0  0  0  0
    6.4088   -1.1329    0.0000 O   0  0  0  0  0  0
    6.4108    1.1447   -0.0001 O   0  5  0  0  0  0
   -0.4374    1.0121   -0.0002 H   0  0  0  0  0  0
   -0.4324   -0.5218    0.8808 H   0  0  0  0  0  0
   -0.4323   -0.5220   -0.8808 H   0  0  0  0  0  0
    1.6624    2.1519    0.0001 H   0  0  0  0  0  0
    4.1793    2.1251    0.0000 H   0  0  0  0  0  0
    4.1802   -2.1121    0.0000 H   0  0  0  0  0  0
    1.6648   -2.1422    0.0000 H   0  0  0  0  0  0
  1  2  1  0  0  0
  1 11  1  0  0  0
  1 12  1  0  0  0
  1 13  1  0  0  0
  2  7  1  0  0  0
  2  3  2  0  0  0
  3  4  1  0  0  0
  3 14  1  0  0  0
  4  5  2  0  0  0
  4 15  1  0  0  0
  5  6  1  0  0  0
  5  8  1  0  0  0
  6  7  2  0  0  0
  6 16  1  0  0  0
  7 17  1  0  0  0
  8  9  2  0  0  0
  8 10  1  0  0  0
M  CHG  1  10  -1
M  END
> <i_m_Spin_multiplicity>
1

> <s_j_Task>
Single Point

> <s_j_QM_Method>
DFT(b3lyp-d3)

> <s_j_QM_Basis>
cc-pvtz(-f)

> <i_j_Number_of_canonical_orbitals>
287

> <i_j_Geometry_convergence_category>
0

> <r_j_Gas_Phase_Energy>
-459.74837664649

> <r_j_Final_Energy>
-459.74837664649

> <r_j_HOMO>
-0.0464268721173431

> <r_j_LUMO>
0.115515953384707

> <r_j_Polarizability>
100.116827580073

> <r_j_QM_Dipole_(debye)>
10.1818844056509

> <r_j_QM_Dipole_X_(debye)>
-10.1818168143661

> <r_j_QM_Dipole_Y_(debye)>
-0.0370996231865237

> <r_j_QM_Dipole_Z_(debye)>
0.0001633637755683

> <r_j_Lowest_Frequency_(cm-1)>
96.9891493677311

> <r_j_Highest_Frequency_(cm-1)>
3135.6540856598

> <r_j_2nd_Lowest_Frequency_(cm-1)>
113.391846838941

> <i_j_Num_Negative_Frequencies>
0

> <r_j_Zero_Point_Energy_(kcal/mol)>
80.7448887693925

> <r_j_Entropy_(cal/mol/K)_298.15K_1.00E+00atm>
89.9266236369372

> <r_j_Enthalpy_(kcal/mol)_298.15K_1.00E+00atm>
5.84305600965436

> <r_j_Free_Energy_(kcal/mol)_298.15K_1.00E+00atm>
-20.9685668276985

> <r_j_Internal_Energy_(kcal/mol)_298.15K_1.00E+00atm>
5.25057042082709

> <r_j_Heat_Capacity_(cal/mol/K)_298.15K_1.00E+00atm>
31.7336754532372

> <r_j_ln(Q)_298.15K_1.00E+00atm>
35.3908470064263

> <r_j_Total_Internal_Energy_(au)_298.15K_1.00E+00atm>
-459.611334158206

> <r_j_Total_Enthalpy_(au)_298.15K_1.00E+00atm>
-459.610389972314

> <r_j_Total_Free_Energy_(au)_298.15K_1.00E+00atm>
-459.65311701329

> <r_epik_Ionization_Penalty>
  0.0012

> <r_epik_Ionization_Penalty_Charging>
  0.0012

> <r_epik_Ionization_Penalty_Neutral>
  0.0000

> <r_epik_State_Penalty>
  0.0008

> <r_epik_Charging_Adjusted_Penalty>
0.00191378

> <i_epik_Tot_Q>
-1

> <i_epik_Tot_abs_Q>
1

> <s_lp_Force_Field>
S-OPLS

> <r_lp_Energy>
15.179

> <b_lp_Chiralities_Consistent>
1

$$$$
