7471951_2-Methyl-4-nitronaphthalene
                    3D
 Schrodinger Suite 2021-3.
 23 24  0  0  1  0            999 V2000
    0.0049   -0.0139   -0.0001 C   0  0  0  0  0  0
    1.5129    0.0090    0.0000 C   0  0  0  0  0  0
    2.2355    1.1813    0.0001 C   0  0  0  0  0  0
    3.6538    1.1942    0.0001 C   0  0  0  0  0  0
    4.3470    2.4336    0.0000 C   0  0  0  0  0  0
    5.7199    2.4782   -0.0001 C   0  0  0  0  0  0
    6.4532    1.2731   -0.0001 C   0  0  0  0  0  0
    5.8194    0.0495    0.0000 C   0  0  0  0  0  0
    4.3990   -0.0372    0.0000 C   0  0  0  0  0  0
    3.6093   -1.2375    0.0000 C   0  0  0  0  0  0
    2.2305   -1.2071    0.0000 C   0  0  0  0  0  0
    4.2029   -2.5940    0.0000 N   0  3  1  0  0  0
    3.4338   -3.5576    0.0002 O   0  0  0  0  0  0
    5.4292   -2.7154   -0.0002 O   0  5  0  0  0  0
   -0.4115    0.9967    0.0000 H   0  0  0  0  0  0
   -0.3801   -0.5392    0.8811 H   0  0  0  0  0  0
   -0.3799   -0.5391   -0.8814 H   0  0  0  0  0  0
    1.7150    2.1361    0.0002 H   0  0  0  0  0  0
    3.7642    3.3502    0.0000 H   0  0  0  0  0  0
    6.2389    3.4317   -0.0001 H   0  0  0  0  0  0
    7.5387    1.3054   -0.0001 H   0  0  0  0  0  0
    6.4020   -0.8570    0.0000 H   0  0  0  0  0  0
    1.6979   -2.1499    0.0000 H   0  0  0  0  0  0
  1  2  1  0  0  0
  1 15  1  0  0  0
  1 16  1  0  0  0
  1 17  1  0  0  0
  2 11  1  0  0  0
  2  3  2  0  0  0
  3  4  1  0  0  0
  3 18  1  0  0  0
  4  9  1  0  0  0
  4  5  2  0  0  0
  5  6  1  0  0  0
  5 19  1  0  0  0
  6  7  2  0  0  0
  6 20  1  0  0  0
  7  8  1  0  0  0
  7 21  1  0  0  0
  8  9  2  0  0  0
  8 22  1  0  0  0
  9 10  1  0  0  0
 10 11  2  0  0  0
 10 12  1  0  0  0
 11 23  1  0  0  0
 12 13  2  0  0  0
 12 14  1  0  0  0
M  END
>  <i_m_Spin_multiplicity> (1)
1

>  <s_j_Task> (1)
Single Point

>  <s_j_QM_Method> (1)
DFT(b3lyp-d3)

>  <s_j_QM_Basis> (1)
cc-pvtz(-f)

>  <i_j_Number_of_canonical_orbitals> (1)
393

>  <i_j_Geometry_convergence_category> (1)
0

>  <r_j_Gas_Phase_Energy> (1)
-629.922788694299

>  <r_j_Final_Energy> (1)
-629.922788694299

>  <r_j_HOMO> (1)
-0.240752177926459

>  <r_j_LUMO> (1)
-0.106541596589821

>  <r_j_Polarizability> (1)
145.55441535936

>  <r_j_QM_Dipole_(debye)> (1)
4.89387928229582

>  <r_j_QM_Dipole_X_(debye)> (1)
-2.0533965492729

>  <r_j_QM_Dipole_Y_(debye)> (1)
4.4422535993688

>  <r_j_QM_Dipole_Z_(debye)> (1)
3.64848506586867e-06

>  <r_j_Lowest_Frequency_(cm-1)> (1)
52.1862214607927

>  <r_j_Highest_Frequency_(cm-1)> (1)
3234.84565211163

>  <r_j_2nd_Lowest_Frequency_(cm-1)> (1)
105.942171799086

>  <i_j_Num_Negative_Frequencies> (1)
0

>  <r_j_Zero_Point_Energy_(kcal/mol)> (1)
110.928068718695

>  <r_j_Entropy_(cal/mol/K)_298.15K_1.00E+00atm> (1)
100.924906219189

>  <r_j_Enthalpy_(kcal/mol)_298.15K_1.00E+00atm> (1)
7.30097443335505

>  <r_j_Free_Energy_(kcal/mol)_298.15K_1.00E+00atm> (1)
-22.7897863558961

>  <r_j_Internal_Energy_(kcal/mol)_298.15K_1.00E+00atm> (1)
6.70848884452778

>  <r_j_Heat_Capacity_(cal/mol/K)_298.15K_1.00E+00atm> (1)
42.9557531265732

>  <r_j_ln(Q)_298.15K_1.00E+00atm> (1)
38.4647100041786

>  <r_j_Total_Internal_Energy_(au)_298.15K_1.00E+00atm> (1)
-629.735322905833

>  <r_j_Total_Enthalpy_(au)_298.15K_1.00E+00atm> (1)
-629.734378719941

>  <r_j_Total_Free_Energy_(au)_298.15K_1.00E+00atm> (1)
-629.782331399905

>  <r_lp_tautomer_probability> (1)
1

>  <r_epik_Ionization_Penalty> (1)
  0.0000

>  <r_epik_Ionization_Penalty_Charging> (1)
  0.0000

>  <r_epik_Ionization_Penalty_Neutral> (1)
  0.0000

>  <r_epik_State_Penalty> (1)
  0.0000

>  <r_epik_Charging_Adjusted_Penalty> (1)
0

>  <i_epik_Tot_Q> (1)
0

>  <i_epik_Tot_abs_Q> (1)
2

>  <s_lp_Force_Field> (1)
S-OPLS

>  <r_lp_Energy> (1)
26.0226

>  <b_lp_Chiralities_Consistent> (1)
1

$$$$
