7471_N,N-Dimethyl-p-toluidine
                    3D
 Schrodinger Suite 2021-3.
 23 23  0  0  1  0            999 V2000
   -4.2543   -0.1571   -0.0005 C   0  0  0  0  0  0
   -2.7495   -0.0187   -0.0002 C   0  0  0  0  0  0
   -1.9130   -1.1407    0.0018 C   0  0  0  0  0  0
   -0.5246   -1.0049    0.0022 C   0  0  0  0  0  0
    0.0643    0.2644    0.0006 C   0  0  0  0  0  0
   -0.7652    1.3892   -0.0014 C   0  0  0  0  0  0
   -2.1511    1.2484   -0.0019 C   0  0  0  0  0  0
    1.4930    0.4603    0.0009 N   0  0  0  0  0  0
    2.1369   -0.0369   -1.2120 C   0  0  0  0  0  0
    2.1377   -0.0411    1.2116 C   0  0  0  0  0  0
   -4.5627   -1.2063    0.0001 H   0  0  0  0  0  0
   -4.6969    0.3209   -0.8822 H   0  0  0  0  0  0
   -4.6974    0.3222    0.8801 H   0  0  0  0  0  0
   -2.3541   -2.1347    0.0030 H   0  0  0  0  0  0
    0.1048   -1.8907    0.0036 H   0  0  0  0  0  0
   -0.3012    2.3707   -0.0025 H   0  0  0  0  0  0
   -2.7805    2.1355   -0.0034 H   0  0  0  0  0  0
    1.6438    0.3911   -2.0890 H   0  0  0  0  0  0
    2.1144   -1.1384   -1.3098 H   0  0  0  0  0  0
    3.1864    0.2781   -1.2198 H   0  0  0  0  0  0
    1.6448    0.3834    2.0903 H   0  0  0  0  0  0
    3.1870    0.2745    1.2201 H   0  0  0  0  0  0
    2.1160   -1.1429    1.3054 H   0  0  0  0  0  0
  1  2  1  0  0  0
  1 11  1  0  0  0
  1 12  1  0  0  0
  1 13  1  0  0  0
  2  7  1  0  0  0
  2  3  2  0  0  0
  3  4  1  0  0  0
  3 14  1  0  0  0
  4  5  2  0  0  0
  4 15  1  0  0  0
  5  6  1  0  0  0
  5  8  1  0  0  0
  6  7  2  0  0  0
  6 16  1  0  0  0
  7 17  1  0  0  0
  8  9  1  0  0  0
  8 10  1  0  0  0
  9 18  1  0  0  0
  9 19  1  0  0  0
  9 20  1  0  0  0
 10 21  1  0  0  0
 10 22  1  0  0  0
 10 23  1  0  0  0
M  END
>  <i_m_Spin_multiplicity> (1)
1

>  <s_j_Task> (1)
Single Point

>  <s_j_QM_Method> (1)
DFT(b3lyp-d3)

>  <s_j_QM_Basis> (1)
cc-pvtz(-f)

>  <i_j_Number_of_canonical_orbitals> (1)
341

>  <i_j_Geometry_convergence_category> (1)
0

>  <r_j_Gas_Phase_Energy> (1)
-405.674009393438

>  <r_j_Final_Energy> (1)
-405.674009393438

>  <r_j_HOMO> (1)
-0.219570921874737

>  <r_j_LUMO> (1)
-0.0132850437186759

>  <r_j_Polarizability> (1)
112.559441637025

>  <r_j_QM_Dipole_(debye)> (1)
0.626984957473847

>  <r_j_QM_Dipole_X_(debye)> (1)
-0.285303672061146

>  <r_j_QM_Dipole_Y_(debye)> (1)
-0.558310383615502

>  <r_j_QM_Dipole_Z_(debye)> (1)
-0.00121126133378059

>  <r_j_Lowest_Frequency_(cm-1)> (1)
45.2042994991395

>  <r_j_Highest_Frequency_(cm-1)> (1)
3144.73104197919

>  <r_j_2nd_Lowest_Frequency_(cm-1)> (1)
108.323077151696

>  <i_j_Num_Negative_Frequencies> (1)
0

>  <r_j_Zero_Point_Energy_(kcal/mol)> (1)
125.335022583407

>  <r_j_Entropy_(cal/mol/K)_298.15K_1.00E+00atm> (1)
94.4532905448322

>  <r_j_Enthalpy_(kcal/mol)_298.15K_1.00E+00atm> (1)
6.67081645056891

>  <r_j_Free_Energy_(kcal/mol)_298.15K_1.00E+00atm> (1)
-21.4904321253728

>  <r_j_Internal_Energy_(kcal/mol)_298.15K_1.00E+00atm> (1)
6.07833086174164

>  <r_j_Heat_Capacity_(cal/mol/K)_298.15K_1.00E+00atm> (1)
37.8830410002354

>  <r_j_ln(Q)_298.15K_1.00E+00atm> (1)
36.2716537425147

>  <r_j_Total_Internal_Energy_(au)_298.15K_1.00E+00atm> (1)
-405.464588883107

>  <r_j_Total_Enthalpy_(au)_298.15K_1.00E+00atm> (1)
-405.463644697215

>  <r_j_Total_Free_Energy_(au)_298.15K_1.00E+00atm> (1)
-405.508522503722

>  <r_epik_Ionization_Penalty> (1)
  0.0165

>  <r_epik_Ionization_Penalty_Charging> (1)
  0.0000

>  <r_epik_Ionization_Penalty_Neutral> (1)
  0.0165

>  <r_epik_State_Penalty> (1)
  0.0131

>  <r_epik_Charging_Adjusted_Penalty> (1)
0.0130629

>  <i_epik_Tot_Q> (1)
0

>  <i_epik_Tot_abs_Q> (1)
0

>  <s_lp_Force_Field> (1)
S-OPLS

>  <r_lp_Energy> (1)
27.0689

>  <b_lp_Chiralities_Consistent> (1)
1

$$$$
