7486_1,4-diisopropylbenzene
                    3D
 Schrodinger Suite 2021-3.
 30 30  0  0  1  0            999 V2000
   -0.6218   -0.7541   -1.2326 C   0  0  0  0  0  0
   -0.0543    0.0150   -0.0258 C   0  0  0  0  0  0
   -0.6248    1.4436    0.0329 C   0  0  0  0  0  0
    1.4676    0.0179   -0.0283 C   0  0  0  0  0  0
    2.1919   -0.5812    1.0054 C   0  0  0  0  0  0
    3.5877   -0.5815    1.0053 C   0  0  0  0  0  0
    4.3120    0.0173   -0.0287 C   0  0  0  0  0  0
    3.5855    0.6195   -1.0666 C   0  0  0  0  0  0
    2.1941    0.6198   -1.0664 C   0  0  0  0  0  0
    5.8339    0.0143   -0.0262 C   0  0  0  0  0  0
    6.4042    1.4430    0.0342 C   0  0  0  0  0  0
    6.4016   -0.7533   -1.2339 C   0  0  0  0  0  0
   -0.2401   -1.7792   -1.2622 H   0  0  0  0  0  0
   -0.3444   -0.2675   -2.1743 H   0  0  0  0  0  0
   -1.7158   -0.7948   -1.1886 H   0  0  0  0  0  0
   -0.3775   -0.5090    0.8835 H   0  0  0  0  0  0
   -0.2441    1.9851    0.9041 H   0  0  0  0  0  0
   -1.7187    1.4236    0.0903 H   0  0  0  0  0  0
   -0.3490    2.0140   -0.8610 H   0  0  0  0  0  0
    1.6575   -1.0562    1.8251 H   0  0  0  0  0  0
    4.1221   -1.0567    1.8248 H   0  0  0  0  0  0
    4.1153    1.0954   -1.8880 H   0  0  0  0  0  0
    1.6643    1.0958   -1.8877 H   0  0  0  0  0  0
    6.1571   -0.5107    0.8824 H   0  0  0  0  0  0
    6.0232    1.9835    0.9061 H   0  0  0  0  0  0
    6.1284    2.0143   -0.8591 H   0  0  0  0  0  0
    7.4981    1.4232    0.0919 H   0  0  0  0  0  0
    6.0198   -1.7783   -1.2650 H   0  0  0  0  0  0
    7.4956   -0.7942   -1.1896 H   0  0  0  0  0  0
    6.1247   -0.2655   -2.1750 H   0  0  0  0  0  0
  1  2  1  0  0  0
  1 13  1  0  0  0
  1 14  1  0  0  0
  1 15  1  0  0  0
  2  3  1  0  0  0
  2  4  1  0  0  0
  2 16  1  0  0  0
  3 17  1  0  0  0
  3 18  1  0  0  0
  3 19  1  0  0  0
  4  9  1  0  0  0
  4  5  2  0  0  0
  5  6  1  0  0  0
  5 20  1  0  0  0
  6  7  2  0  0  0
  6 21  1  0  0  0
  7  8  1  0  0  0
  7 10  1  0  0  0
  8  9  2  0  0  0
  8 22  1  0  0  0
  9 23  1  0  0  0
 10 11  1  0  0  0
 10 12  1  0  0  0
 10 24  1  0  0  0
 11 25  1  0  0  0
 11 26  1  0  0  0
 11 27  1  0  0  0
 12 28  1  0  0  0
 12 29  1  0  0  0
 12 30  1  0  0  0
M  END
>  <i_m_Spin_multiplicity> (1)
1

>  <s_j_Task> (1)
Single Point

>  <s_j_QM_Method> (1)
DFT(b3lyp-d3)

>  <s_j_QM_Basis> (1)
cc-pvtz(-f)

>  <i_j_Number_of_canonical_orbitals> (1)
430

>  <i_j_Geometry_convergence_category> (1)
0

>  <r_j_Gas_Phase_Energy> (1)
-468.314079968049

>  <r_j_Final_Energy> (1)
-468.314079968049

>  <r_j_HOMO> (1)
-0.234200616384139

>  <r_j_LUMO> (1)
-0.00858331649416563

>  <r_j_Polarizability> (1)
141.548033051578

>  <r_j_QM_Dipole_(debye)> (1)
0.0621592366693426

>  <r_j_QM_Dipole_X_(debye)> (1)
7.7775081369966e-05

>  <r_j_QM_Dipole_Y_(debye)> (1)
-0.0324931315083498

>  <r_j_QM_Dipole_Z_(debye)> (1)
0.0529901977646163

>  <r_j_Lowest_Frequency_(cm-1)> (1)
69.5632820542144

>  <r_j_Highest_Frequency_(cm-1)> (1)
3129.1833727827

>  <r_j_2nd_Lowest_Frequency_(cm-1)> (1)
74.4367491183799

>  <i_j_Num_Negative_Frequencies> (1)
0

>  <r_j_Zero_Point_Energy_(kcal/mol)> (1)
168.584341516123

>  <r_j_Entropy_(cal/mol/K)_298.15K_1.00E+00atm> (1)
105.740779372923

>  <r_j_Enthalpy_(kcal/mol)_298.15K_1.00E+00atm> (1)
8.22453066610011

>  <r_j_Free_Energy_(kcal/mol)_298.15K_1.00E+00atm> (1)
-23.3020827039368

>  <r_j_Internal_Energy_(kcal/mol)_298.15K_1.00E+00atm> (1)
7.63204507727283

>  <r_j_Heat_Capacity_(cal/mol/K)_298.15K_1.00E+00atm> (1)
48.6286100602942

>  <r_j_ln(Q)_298.15K_1.00E+00atm> (1)
39.3293662214795

>  <r_j_Total_Internal_Energy_(au)_298.15K_1.00E+00atm> (1)
-468.03326127922

>  <r_j_Total_Enthalpy_(au)_298.15K_1.00E+00atm> (1)
-468.032317093328

>  <r_j_Total_Free_Energy_(au)_298.15K_1.00E+00atm> (1)
-468.082557950043

>  <r_lp_tautomer_probability> (1)
1

>  <r_epik_Ionization_Penalty> (1)
  0.0000

>  <r_epik_Ionization_Penalty_Charging> (1)
  0.0000

>  <r_epik_Ionization_Penalty_Neutral> (1)
  0.0000

>  <r_epik_State_Penalty> (1)
  0.0000

>  <r_epik_Charging_Adjusted_Penalty> (1)
0

>  <i_epik_Tot_Q> (1)
0

>  <i_epik_Tot_abs_Q> (1)
0

>  <s_lp_Force_Field> (1)
S-OPLS

>  <r_lp_Energy> (1)
12.7654

>  <b_lp_Chiralities_Consistent> (1)
1

$$$$
