7489_Terephthalic acid
                    3D
 Schrodinger Suite 2021-3.
 16 16  0  0  1  0            999 V2000
   -2.0884    1.2020    0.0000 C   0  0  0  0  0  0
   -0.6913    1.2020    0.0000 C   0  0  0  0  0  0
    0.0384    0.0043    0.0000 C   0  0  0  0  0  0
   -0.6913   -1.1934    0.0000 C   0  0  0  0  0  0
   -2.0884   -1.1934    0.0000 C   0  0  0  0  0  0
   -2.8181    0.0043    0.0000 C   0  0  0  0  0  0
   -4.3699    0.0044    0.0000 C   0  0  0  0  0  0
   -4.9235   -1.1301    0.0001 O   0  0  0  0  0  0
   -4.9235    1.1387    0.0000 O   0  5  0  0  0  0
    1.5902    0.0043    0.0000 C   0  0  0  0  0  0
    2.1439   -1.1301   -0.0001 O   0  0  0  0  0  0
    2.1438    1.1388    0.0001 O   0  5  0  0  0  0
   -2.6612    2.1271    0.0000 H   0  0  0  0  0  0
   -0.1185    2.1271    0.0000 H   0  0  0  0  0  0
   -0.1185   -2.1185    0.0000 H   0  0  0  0  0  0
   -2.6612   -2.1186    0.0000 H   0  0  0  0  0  0
  1  6  1  0  0  0
  1  2  2  0  0  0
  1 13  1  0  0  0
  2  3  1  0  0  0
  2 14  1  0  0  0
  3  4  2  0  0  0
  3 10  1  0  0  0
  4  5  1  0  0  0
  4 15  1  0  0  0
  5  6  2  0  0  0
  5 16  1  0  0  0
  6  7  1  0  0  0
  7  8  2  0  0  0
  7  9  1  0  0  0
 10 11  2  0  0  0
 10 12  1  0  0  0
M  END
>  <i_m_Spin_multiplicity> (1)
1

>  <s_j_Task> (1)
Single Point

>  <s_j_QM_Method> (1)
DFT(b3lyp-d3)

>  <s_j_QM_Basis> (1)
cc-pvtz(-f)

>  <i_j_Number_of_canonical_orbitals> (1)
306

>  <i_j_Geometry_convergence_category> (1)
0

>  <r_j_Gas_Phase_Energy> (1)
-608.417173857143

>  <r_j_Final_Energy> (1)
-608.417173857143

>  <r_j_HOMO> (1)
0.0537477166932596

>  <r_j_LUMO> (1)
0.232911731607404

>  <r_j_Polarizability> (1)
107.017580188054

>  <r_j_QM_Dipole_(debye)> (1)
0.000729619856941719

>  <r_j_QM_Dipole_X_(debye)> (1)
-0.000618959015664735

>  <r_j_QM_Dipole_Y_(debye)> (1)
0.000360005302369982

>  <r_j_QM_Dipole_Z_(debye)> (1)
-0.000140110866232762

>  <r_j_Lowest_Frequency_(cm-1)> (1)
89.387757348805

>  <r_j_Highest_Frequency_(cm-1)> (1)
3118.97315033423

>  <r_j_2nd_Lowest_Frequency_(cm-1)> (1)
91.9794695563089

>  <i_j_Num_Negative_Frequencies> (1)
0

>  <r_j_Zero_Point_Energy_(kcal/mol)> (1)
64.9648547757447

>  <r_j_Entropy_(cal/mol/K)_298.15K_1.00E+00atm> (1)
92.9164581236058

>  <r_j_Enthalpy_(kcal/mol)_298.15K_1.00E+00atm> (1)
6.37822128062225

>  <r_j_Free_Energy_(kcal/mol)_298.15K_1.00E+00atm> (1)
-21.3248207089308

>  <r_j_Internal_Energy_(kcal/mol)_298.15K_1.00E+00atm> (1)
5.78573569179497

>  <r_j_Heat_Capacity_(cal/mol/K)_298.15K_1.00E+00atm> (1)
34.38658862389

>  <r_j_ln(Q)_298.15K_1.00E+00atm> (1)
35.9921340047101

>  <r_j_Total_Internal_Energy_(au)_298.15K_1.00E+00atm> (1)
-608.30442561373

>  <r_j_Total_Enthalpy_(au)_298.15K_1.00E+00atm> (1)
-608.303481427838

>  <r_j_Total_Free_Energy_(au)_298.15K_1.00E+00atm> (1)
-608.347629035665

>  <r_epik_Ionization_Penalty> (1)
  0.0016

>  <r_epik_Ionization_Penalty_Charging> (1)
  0.0016

>  <r_epik_Ionization_Penalty_Neutral> (1)
  0.0000

>  <r_epik_State_Penalty> (1)
  0.0011

>  <r_epik_Charging_Adjusted_Penalty> (1)
0.00273410894217301

>  <i_epik_Tot_Q> (1)
-2

>  <i_epik_Tot_abs_Q> (1)
2

>  <s_lp_Force_Field> (1)
S-OPLS

>  <r_lp_Energy> (1)
31.379254

>  <b_lp_Chiralities_Consistent> (1)
1

$$$$
