7497_Diethyl aminoethanol
                    3D
 Schrodinger Suite 2021-3.
 24 23  0  0  1  0            999 V2000
   -2.0392   -0.9205    1.0995 C   0  0  0  0  0  0
   -0.6046   -0.5400    1.4391 C   0  0  0  0  0  0
    0.1235    0.0662    0.2513 N   0  3  1  0  0  0
   -0.2726    1.5126    0.0015 C   0  0  0  0  0  0
   -0.0534    1.9271   -1.4469 C   0  0  0  0  0  0
    1.6246   -0.1136    0.3440 C   0  0  0  0  0  0
    1.9932   -1.5174   -0.1299 C   0  0  0  0  0  0
    1.2839   -1.6824   -1.3522 O   0  0  0  0  0  0
   -2.5030   -1.3680    1.9821 H   0  0  0  0  0  0
   -2.0718   -1.6626    0.2953 H   0  0  0  0  0  0
   -2.6490   -0.0609    0.8103 H   0  0  0  0  0  0
   -0.5431    0.1960    2.2450 H   0  0  0  0  0  0
   -0.0376   -1.4220    1.7423 H   0  0  0  0  0  0
   -1.3261    1.6003    0.2700 H   0  0  0  0  0  0
    0.3077    2.1152    0.7052 H   0  0  0  0  0  0
   -0.3709    2.9661   -1.5652 H   0  0  0  0  0  0
   -0.6519    1.3161   -2.1298 H   0  0  0  0  0  0
    0.9937    1.8654   -1.7532 H   0  0  0  0  0  0
    2.0788    0.6253   -0.3158 H   0  0  0  0  0  0
    1.9346    0.0821    1.3722 H   0  0  0  0  0  0
    3.0814   -1.5625   -0.2621 H   0  0  0  0  0  0
    1.7119   -2.2798    0.6102 H   0  0  0  0  0  0
    1.4707   -2.5483   -1.7377 H   0  0  0  0  0  0
   -0.1329   -0.4838   -0.5840 H   0  0  0  0  0  0
  1  2  1  0  0  0
  1  9  1  0  0  0
  1 10  1  0  0  0
  1 11  1  0  0  0
  2  3  1  0  0  0
  2 12  1  0  0  0
  2 13  1  0  0  0
  3  4  1  0  0  0
  3  6  1  0  0  0
  3 24  1  0  0  0
  4  5  1  0  0  0
  4 14  1  0  0  0
  4 15  1  0  0  0
  5 16  1  0  0  0
  5 17  1  0  0  0
  5 18  1  0  0  0
  6  7  1  0  0  0
  6 19  1  0  0  0
  6 20  1  0  0  0
  7  8  1  0  0  0
  7 21  1  0  0  0
  7 22  1  0  0  0
  8 23  1  0  0  0
M  END
>  <i_m_Spin_multiplicity> (1)
1

>  <s_j_Task> (1)
Single Point

>  <s_j_QM_Method> (1)
DFT(b3lyp-d3)

>  <s_j_QM_Basis> (1)
cc-pvtz(-f)

>  <i_j_Number_of_canonical_orbitals> (1)
328

>  <i_j_Geometry_convergence_category> (1)
3

>  <r_j_Gas_Phase_Energy> (1)
-368.173700205168

>  <r_j_Final_Energy> (1)
-368.173700205168

>  <r_j_HOMO> (1)
-0.453172767413796

>  <r_j_LUMO> (1)
-0.133108665347624

>  <r_j_Polarizability> (1)
81.0144497182532

>  <r_j_QM_Dipole_(debye)> (1)
1.33996296606892

>  <r_j_QM_Dipole_X_(debye)> (1)
0.363838853623643

>  <r_j_QM_Dipole_Y_(debye)> (1)
-0.283933358453245

>  <r_j_QM_Dipole_Z_(debye)> (1)
1.25797610747879

>  <r_j_Lowest_Frequency_(cm-1)> (1)
67.7016080887735

>  <r_j_Highest_Frequency_(cm-1)> (1)
3778.92796232382

>  <r_j_2nd_Lowest_Frequency_(cm-1)> (1)
121.406363260339

>  <i_j_Num_Negative_Frequencies> (1)
0

>  <r_j_Zero_Point_Energy_(kcal/mol)> (1)
141.886227404468

>  <r_j_Entropy_(cal/mol/K)_298.15K_1.00E+00atm> (1)
94.3496678855606

>  <r_j_Enthalpy_(kcal/mol)_298.15K_1.00E+00atm> (1)
6.73055107102812

>  <r_j_Free_Energy_(kcal/mol)_298.15K_1.00E+00atm> (1)
-21.3998024090518

>  <r_j_Internal_Energy_(kcal/mol)_298.15K_1.00E+00atm> (1)
6.13806548220085

>  <r_j_Heat_Capacity_(cal/mol/K)_298.15K_1.00E+00atm> (1)
36.8604437065672

>  <r_j_ln(Q)_298.15K_1.00E+00atm> (1)
36.1186884754599

>  <r_j_Total_Internal_Energy_(au)_298.15K_1.00E+00atm> (1)
-367.937808477691

>  <r_j_Total_Enthalpy_(au)_298.15K_1.00E+00atm> (1)
-367.936864291798

>  <r_j_Total_Free_Energy_(au)_298.15K_1.00E+00atm> (1)
-367.981692863836

>  <r_epik_Ionization_Penalty> (1)
  0.0211

>  <r_epik_Ionization_Penalty_Charging> (1)
  0.0211

>  <r_epik_Ionization_Penalty_Neutral> (1)
  0.0000

>  <r_epik_State_Penalty> (1)
  0.0170

>  <r_epik_Charging_Adjusted_Penalty> (1)
0.0381069328159825

>  <i_epik_Tot_Q> (1)
1

>  <i_epik_Tot_abs_Q> (1)
1

>  <s_lp_Force_Field> (1)
S-OPLS

>  <r_lp_Energy> (1)
12.188166

>  <b_lp_Chiralities_Consistent> (1)
1

$$$$
