7501_Styrene
                    3D
 Schrodinger Suite 2021-3.
 16 16  0  0  1  0            999 V2000
   -0.7954    1.1125   -0.0001 C   0  0  0  0  0  0
    0.0263    0.0559    0.0001 C   0  0  0  0  0  0
    1.4988    0.0622    0.0000 C   0  0  0  0  0  0
    2.2629    1.2432    0.0000 C   0  0  0  0  0  0
    3.6528    1.1944    0.0000 C   0  0  0  0  0  0
    4.3179   -0.0349    0.0000 C   0  0  0  0  0  0
    3.5763   -1.2155    0.0000 C   0  0  0  0  0  0
    2.1835   -1.1648    0.0000 C   0  0  0  0  0  0
   -0.4367    2.1374   -0.0002 H   0  0  0  0  0  0
   -1.8722    0.9801    0.0000 H   0  0  0  0  0  0
   -0.4205   -0.9381    0.0002 H   0  0  0  0  0  0
    1.7663    2.2083    0.0001 H   0  0  0  0  0  0
    4.2226    2.1194    0.0001 H   0  0  0  0  0  0
    5.4034   -0.0692   -0.0001 H   0  0  0  0  0  0
    4.0815   -2.1771   -0.0001 H   0  0  0  0  0  0
    1.6122   -2.0900    0.0000 H   0  0  0  0  0  0
  1  2  2  0  0  0
  1  9  1  0  0  0
  1 10  1  0  0  0
  2  3  1  0  0  0
  2 11  1  0  0  0
  3  8  1  0  0  0
  3  4  2  0  0  0
  4  5  1  0  0  0
  4 12  1  0  0  0
  5  6  2  0  0  0
  5 13  1  0  0  0
  6  7  1  0  0  0
  6 14  1  0  0  0
  7  8  2  0  0  0
  7 15  1  0  0  0
  8 16  1  0  0  0
M  END
>  <i_m_Spin_multiplicity> (1)
1

>  <s_j_Task> (1)
Single Point

>  <s_j_QM_Method> (1)
DFT(b3lyp-d3)

>  <s_j_QM_Basis> (1)
cc-pvtz(-f)

>  <i_j_Number_of_canonical_orbitals> (1)
251

>  <i_j_Geometry_convergence_category> (1)
0

>  <r_j_Gas_Phase_Energy> (1)
-309.757311109821

>  <r_j_Final_Energy> (1)
-309.757311109821

>  <r_j_HOMO> (1)
-0.230657038724138

>  <r_j_LUMO> (1)
-0.0439847375930915

>  <r_j_Polarizability> (1)
92.4904790975197

>  <r_j_QM_Dipole_(debye)> (1)
0.204511056774696

>  <r_j_QM_Dipole_X_(debye)> (1)
0.199360926039395

>  <r_j_QM_Dipole_Y_(debye)> (1)
-0.045606919007099

>  <r_j_QM_Dipole_Z_(debye)> (1)
4.95025032975875e-05

>  <r_j_Lowest_Frequency_(cm-1)> (1)
109.776647640025

>  <r_j_Highest_Frequency_(cm-1)> (1)
3184.07675742455

>  <r_j_2nd_Lowest_Frequency_(cm-1)> (1)
232.410952443373

>  <i_j_Num_Negative_Frequencies> (1)
0

>  <r_j_Zero_Point_Energy_(kcal/mol)> (1)
83.3072401177885

>  <r_j_Entropy_(cal/mol/K)_298.15K_1.00E+00atm> (1)
80.1251499364423

>  <r_j_Enthalpy_(kcal/mol)_298.15K_1.00E+00atm> (1)
4.68015558646828

>  <r_j_Free_Energy_(kcal/mol)_298.15K_1.00E+00atm> (1)
-19.209157867082

>  <r_j_Internal_Energy_(kcal/mol)_298.15K_1.00E+00atm> (1)
4.08766999764101

>  <r_j_Heat_Capacity_(cal/mol/K)_298.15K_1.00E+00atm> (1)
25.6901572744549

>  <r_j_ln(Q)_298.15K_1.00E+00atm> (1)
32.4213081791631

>  <r_j_Total_Internal_Energy_(au)_298.15K_1.00E+00atm> (1)
-309.618038454517

>  <r_j_Total_Enthalpy_(au)_298.15K_1.00E+00atm> (1)
-309.617094268625

>  <r_j_Total_Free_Energy_(au)_298.15K_1.00E+00atm> (1)
-309.655164313135

>  <r_lp_tautomer_probability> (1)
1

>  <r_epik_Ionization_Penalty> (1)
  0.0000

>  <r_epik_Ionization_Penalty_Charging> (1)
  0.0000

>  <r_epik_Ionization_Penalty_Neutral> (1)
  0.0000

>  <r_epik_State_Penalty> (1)
  0.0000

>  <r_epik_Charging_Adjusted_Penalty> (1)
0

>  <i_epik_Tot_Q> (1)
0

>  <i_epik_Tot_abs_Q> (1)
0

>  <s_lp_Force_Field> (1)
S-OPLS

>  <r_lp_Energy> (1)
10.004109

>  <b_lp_Chiralities_Consistent> (1)
1

$$$$
