7503_Benzyl chloride
                    3D
 Schrodinger Suite 2021-3.
 15 15  0  0  1  0            999 V2000
   -2.8105    0.0000   -0.0073 C   0  0  0  0  0  0
   -2.1109    1.2079   -0.0054 C   0  0  0  0  0  0
   -0.7174    1.2070   -0.0052 C   0  0  0  0  0  0
   -0.0080    0.0001   -0.0104 C   0  0  0  0  0  0
   -0.7174   -1.2069   -0.0052 C   0  0  0  0  0  0
   -2.1109   -1.2078   -0.0054 C   0  0  0  0  0  0
    1.4902    0.0001   -0.0108 C   0  0  0  0  0  0
    2.1833   -0.0001    1.6938 Cl  0  0  0  0  0  0
   -3.8965    0.0000   -0.0105 H   0  0  0  0  0  0
   -2.6511    2.1501   -0.0058 H   0  0  0  0  0  0
   -0.1729    2.1476    0.0014 H   0  0  0  0  0  0
   -0.1728   -2.1475    0.0015 H   0  0  0  0  0  0
   -2.6511   -2.1500   -0.0058 H   0  0  0  0  0  0
    1.9005   -0.8896   -0.4897 H   0  0  0  0  0  0
    1.9005    0.8898   -0.4895 H   0  0  0  0  0  0
  1  6  1  0  0  0
  1  2  2  0  0  0
  1  9  1  0  0  0
  2  3  1  0  0  0
  2 10  1  0  0  0
  3  4  2  0  0  0
  3 11  1  0  0  0
  4  5  1  0  0  0
  4  7  1  0  0  0
  5  6  2  0  0  0
  5 12  1  0  0  0
  6 13  1  0  0  0
  7  8  1  0  0  0
  7 14  1  0  0  0
  7 15  1  0  0  0
M  END
>  <i_m_Spin_multiplicity> (1)
1

>  <s_j_Task> (1)
Single Point

>  <s_j_QM_Method> (1)
DFT(b3lyp-d3)

>  <s_j_QM_Basis> (1)
cc-pvtz(-f)

>  <i_j_Number_of_canonical_orbitals> (1)
247

>  <i_j_Geometry_convergence_category> (1)
0

>  <r_j_Gas_Phase_Energy> (1)
-731.292685438919

>  <r_j_Final_Energy> (1)
-731.292685438919

>  <r_j_HOMO> (1)
-0.26232661182753

>  <r_j_LUMO> (1)
-0.0415039683245361

>  <r_j_Polarizability> (1)
89.3731363837954

>  <r_j_QM_Dipole_(debye)> (1)
2.24786558191308

>  <r_j_QM_Dipole_X_(debye)> (1)
-1.32809567812138

>  <r_j_QM_Dipole_Y_(debye)> (1)
0.000198132602554856

>  <r_j_QM_Dipole_Z_(debye)> (1)
-1.81357699170678

>  <r_j_Lowest_Frequency_(cm-1)> (1)
74.2013767606441

>  <r_j_Highest_Frequency_(cm-1)> (1)
3150.20186014494

>  <r_j_2nd_Lowest_Frequency_(cm-1)> (1)
118.917313687901

>  <i_j_Num_Negative_Frequencies> (1)
0

>  <r_j_Zero_Point_Energy_(kcal/mol)> (1)
74.7677137585446

>  <r_j_Entropy_(cal/mol/K)_298.15K_1.00E+00atm> (1)
83.1359909398724

>  <r_j_Enthalpy_(kcal/mol)_298.15K_1.00E+00atm> (1)
4.80964004214963

>  <r_j_Free_Energy_(kcal/mol)_298.15K_1.00E+00atm> (1)
-19.9773556565733

>  <r_j_Internal_Energy_(kcal/mol)_298.15K_1.00E+00atm> (1)
4.21715445332236

>  <r_j_Heat_Capacity_(cal/mol/K)_298.15K_1.00E+00atm> (1)
25.4812882475038

>  <r_j_ln(Q)_298.15K_1.00E+00atm> (1)
33.7178760687077

>  <r_j_Total_Internal_Energy_(au)_298.15K_1.00E+00atm> (1)
-731.16681503857

>  <r_j_Total_Enthalpy_(au)_298.15K_1.00E+00atm> (1)
-731.165870852678

>  <r_j_Total_Free_Energy_(au)_298.15K_1.00E+00atm> (1)
-731.205371444914

>  <r_lp_tautomer_probability> (1)
1

>  <r_epik_Ionization_Penalty> (1)
  0.0000

>  <r_epik_Ionization_Penalty_Charging> (1)
  0.0000

>  <r_epik_Ionization_Penalty_Neutral> (1)
  0.0000

>  <r_epik_State_Penalty> (1)
  0.0000

>  <r_epik_Charging_Adjusted_Penalty> (1)
0

>  <i_epik_Tot_Q> (1)
0

>  <i_epik_Tot_abs_Q> (1)
0

>  <s_lp_Force_Field> (1)
S-OPLS

>  <r_lp_Energy> (1)
8.7333

>  <b_lp_Chiralities_Consistent> (1)
1

$$$$
