75103_2-Methyl-1,3-Propanediol
                    3D
 Schrodinger Suite 2021-3.
 16 15  0  0  1  0            999 V2000
   -0.5043   -0.7369    1.2517 C   0  0  0  0  0  0
    0.0102    0.0330    0.0298 C   0  0  0  0  0  0
    1.5369    0.0215   -0.0148 C   0  0  0  0  0  0
    1.9666    0.6625   -1.2138 O   0  0  0  0  0  0
   -0.5200    1.4672    0.0091 C   0  0  0  0  0  0
   -1.9447    1.4093   -0.0418 O   0  0  0  0  0  0
   -0.1253   -0.2925    2.1808 H   0  0  0  0  0  0
   -0.1880   -1.7852    1.2262 H   0  0  0  0  0  0
   -1.5949   -0.7033    1.2853 H   0  0  0  0  0  0
   -0.3517   -0.4574   -0.8832 H   0  0  0  0  0  0
    1.9324    0.5373    0.8781 H   0  0  0  0  0  0
    1.8905   -1.0213    0.0299 H   0  0  0  0  0  0
    2.9316    0.6690   -1.2225 H   0  0  0  0  0  0
   -0.1737    1.9927    0.9176 H   0  0  0  0  0  0
   -0.1047    1.9937   -0.8603 H   0  0  0  0  0  0
   -2.2776    2.3131   -0.0976 H   0  0  0  0  0  0
  1  2  1  0  0  0
  1  7  1  0  0  0
  1  8  1  0  0  0
  1  9  1  0  0  0
  2  3  1  0  0  0
  2  5  1  0  0  0
  2 10  1  0  0  0
  3  4  1  0  0  0
  3 11  1  0  0  0
  3 12  1  0  0  0
  4 13  1  0  0  0
  5  6  1  0  0  0
  5 14  1  0  0  0
  5 15  1  0  0  0
  6 16  1  0  0  0
M  END
>  <i_m_Spin_multiplicity> (1)
1

>  <s_j_Task> (1)
Single Point

>  <s_j_QM_Method> (1)
DFT(b3lyp-d3)

>  <s_j_QM_Basis> (1)
cc-pvtz(-f)

>  <i_j_Number_of_canonical_orbitals> (1)
228

>  <i_j_Geometry_convergence_category> (1)
3

>  <r_j_Gas_Phase_Energy> (1)
-309.007663916428

>  <r_j_Final_Energy> (1)
-309.007663916428

>  <r_j_HOMO> (1)
-0.26204413057712

>  <r_j_LUMO> (1)
0.0309588034974597

>  <r_j_Polarizability> (1)
58.4952858948432

>  <r_j_QM_Dipole_(debye)> (1)
1.98283429015902

>  <r_j_QM_Dipole_X_(debye)> (1)
1.65979927147413

>  <r_j_QM_Dipole_Y_(debye)> (1)
0.751687315207046

>  <r_j_QM_Dipole_Z_(debye)> (1)
0.782089752394953

>  <r_j_Lowest_Frequency_(cm-1)> (1)
134.300889104166

>  <r_j_Highest_Frequency_(cm-1)> (1)
3781.19161758971

>  <r_j_2nd_Lowest_Frequency_(cm-1)> (1)
158.725480738511

>  <i_j_Num_Negative_Frequencies> (1)
0

>  <r_j_Zero_Point_Energy_(kcal/mol)> (1)
88.9280104426209

>  <r_j_Entropy_(cal/mol/K)_298.15K_1.00E+00atm> (1)
82.3203984494552

>  <r_j_Enthalpy_(kcal/mol)_298.15K_1.00E+00atm> (1)
5.22439127051824

>  <r_j_Free_Energy_(kcal/mol)_298.15K_1.00E+00atm> (1)
-19.3194355271868

>  <r_j_Internal_Energy_(kcal/mol)_298.15K_1.00E+00atm> (1)
4.63190568169097

>  <r_j_Heat_Capacity_(cal/mol/K)_298.15K_1.00E+00atm> (1)
26.7049382384806

>  <r_j_ln(Q)_298.15K_1.00E+00atm> (1)
32.607435339358

>  <r_j_Total_Internal_Energy_(au)_298.15K_1.00E+00atm> (1)
-308.858566698621

>  <r_j_Total_Enthalpy_(au)_298.15K_1.00E+00atm> (1)
-308.857622512729

>  <r_j_Total_Free_Energy_(au)_298.15K_1.00E+00atm> (1)
-308.896735590652

>  <r_lp_tautomer_probability> (1)
1

>  <r_epik_Ionization_Penalty> (1)
  0.0000

>  <r_epik_Ionization_Penalty_Charging> (1)
  0.0000

>  <r_epik_Ionization_Penalty_Neutral> (1)
  0.0000

>  <r_epik_State_Penalty> (1)
  0.0000

>  <r_epik_Charging_Adjusted_Penalty> (1)
0

>  <i_epik_Tot_Q> (1)
0

>  <i_epik_Tot_abs_Q> (1)
0

>  <s_lp_Force_Field> (1)
S-OPLS

>  <r_lp_Energy> (1)
-0.887672

>  <b_lp_Chiralities_Consistent> (1)
1

$$$$
