7515_4-Methylaniline
                    3D
 Schrodinger Suite 2021-3.
 17 17  0  0  1  0            999 V2000
    0.0159    0.0345    0.0000 C   0  0  0  0  0  0
    1.4546   -0.0661    0.0000 N   0  0  0  0  0  0
    2.1460   -1.2593    0.0000 C   0  0  0  0  0  0
    1.4805   -2.5006    0.0000 C   0  0  0  0  0  0
    2.2102   -3.6885    0.0000 C   0  0  0  0  0  0
    3.6040   -3.6803    0.0000 C   0  0  0  0  0  0
    4.2679   -2.4499    0.0000 C   0  0  0  0  0  0
    3.5569   -1.2568    0.0000 C   0  0  0  0  0  0
   -0.2676    1.0892   -0.0001 H   0  0  0  0  0  0
   -0.4310   -0.4356    0.8880 H   0  0  0  0  0  0
   -0.4309   -0.4356   -0.8881 H   0  0  0  0  0  0
    1.9926    0.7835   -0.0001 H   0  0  0  0  0  0
    0.3967   -2.5386    0.0001 H   0  0  0  0  0  0
    1.6739   -4.6339    0.0000 H   0  0  0  0  0  0
    4.1634   -4.6103   -0.0001 H   0  0  0  0  0  0
    5.3542   -2.4186   -0.0001 H   0  0  0  0  0  0
    4.0872   -0.3067    0.0000 H   0  0  0  0  0  0
  1  2  1  0  0  0
  1  9  1  0  0  0
  1 10  1  0  0  0
  1 11  1  0  0  0
  2  3  1  0  0  0
  2 12  1  0  0  0
  3  8  1  0  0  0
  3  4  2  0  0  0
  4  5  1  0  0  0
  4 13  1  0  0  0
  5  6  2  0  0  0
  5 14  1  0  0  0
  6  7  1  0  0  0
  6 15  1  0  0  0
  7  8  2  0  0  0
  7 16  1  0  0  0
  8 17  1  0  0  0
M  END
>  <i_m_Spin_multiplicity> (1)
1

>  <s_j_Task> (1)
Single Point

>  <s_j_QM_Method> (1)
DFT(b3lyp-d3)

>  <s_j_QM_Basis> (1)
cc-pvtz(-f)

>  <i_j_Number_of_canonical_orbitals> (1)
261

>  <i_j_Geometry_convergence_category> (1)
3

>  <r_j_Gas_Phase_Energy> (1)
-327.027869650685

>  <r_j_Final_Energy> (1)
-327.027869650685

>  <r_j_HOMO> (1)
-0.204547472031201

>  <r_j_LUMO> (1)
-0.0160216525378928

>  <r_j_Polarizability> (1)
88.3532205426864

>  <r_j_QM_Dipole_(debye)> (1)
2.11031884320289

>  <r_j_QM_Dipole_X_(debye)> (1)
-0.944915125636135

>  <r_j_QM_Dipole_Y_(debye)> (1)
1.88695018229039

>  <r_j_QM_Dipole_Z_(debye)> (1)
-0.000186749803907064

>  <r_j_Lowest_Frequency_(cm-1)> (1)
-186.259997303023

>  <r_j_Highest_Frequency_(cm-1)> (1)
3620.6531941548

>  <r_j_2nd_Lowest_Frequency_(cm-1)> (1)
173.339527908864

>  <i_j_Num_Negative_Frequencies> (1)
1

>  <r_j_Zero_Point_Energy_(kcal/mol)> (1)
90.3172729522977

>  <r_j_Entropy_(cal/mol/K)_298.15K_1.00E+00atm> (1)
80.1156931680685

>  <r_j_Enthalpy_(kcal/mol)_298.15K_1.00E+00atm> (1)
4.73498704280321

>  <r_j_Free_Energy_(kcal/mol)_298.15K_1.00E+00atm> (1)
-19.1515068752564

>  <r_j_Internal_Energy_(kcal/mol)_298.15K_1.00E+00atm> (1)
4.14250145397594

>  <r_j_Heat_Capacity_(cal/mol/K)_298.15K_1.00E+00atm> (1)
26.0751241916846

>  <r_j_ln(Q)_298.15K_1.00E+00atm> (1)
32.3240045604545

>  <r_j_Total_Internal_Energy_(au)_298.15K_1.00E+00atm> (1)
-326.877338417418

>  <r_j_Total_Enthalpy_(au)_298.15K_1.00E+00atm> (1)
-326.876394231525

>  <r_j_Total_Free_Energy_(au)_298.15K_1.00E+00atm> (1)
-326.91445978282

>  <r_epik_Ionization_Penalty> (1)
  0.0033

>  <r_epik_Ionization_Penalty_Charging> (1)
  0.0000

>  <r_epik_Ionization_Penalty_Neutral> (1)
  0.0033

>  <r_epik_State_Penalty> (1)
  0.0023

>  <r_epik_Charging_Adjusted_Penalty> (1)
0.00234309

>  <i_epik_Tot_Q> (1)
0

>  <i_epik_Tot_abs_Q> (1)
0

>  <s_lp_Force_Field> (1)
S-OPLS

>  <r_lp_Energy> (1)
12.9122

>  <b_lp_Chiralities_Consistent> (1)
1

$$$$
