75192_Proponal
                    3D
 Schrodinger Suite 2021-3.
 30 30  0  0  1  0            999 V2000
   -2.1436    1.4430    0.0210 C   0  0  0  0  0  0
   -0.6139    1.4746   -0.0522 C   0  0  0  0  0  0
   -0.0019    0.0685   -0.0360 C   0  0  0  0  0  0
    1.5468    0.0491   -0.0292 C   0  0  0  0  0  0
    2.0345    0.7241    1.2993 C   0  0  0  0  0  0
    1.6515    0.1656    2.3394 O   0  0  0  0  0  0
    2.8075    1.8324    1.3042 N   0  5  0  0  0  0
    3.2087    2.4053    0.1555 C   0  0  0  0  0  0
    3.9105    3.4134    0.0470 O   0  0  0  0  0  0
    2.8054    1.8197   -1.1111 N   0  0  0  0  0  0
    2.0340    0.7204   -1.3074 C   0  0  0  0  0  0
    1.7479    0.3012   -2.4314 O   0  0  0  0  0  0
    2.0370   -1.4192   -0.0363 C   0  0  0  0  0  0
    3.5628   -1.5723   -0.0436 C   0  0  0  0  0  0
    3.9997   -3.0391    0.0178 C   0  0  0  0  0  0
   -2.5719    2.4522    0.0034 H   0  0  0  0  0  0
   -2.4816    0.9532    0.9423 H   0  0  0  0  0  0
   -2.5688    0.8853   -0.8230 H   0  0  0  0  0  0
   -0.3031    1.9993   -0.9647 H   0  0  0  0  0  0
   -0.2153    2.0521    0.7900 H   0  0  0  0  0  0
   -0.3271   -0.4580    0.8679 H   0  0  0  0  0  0
   -0.3532   -0.4919   -0.9119 H   0  0  0  0  0  0
    3.1498    2.3029   -1.9308 H   0  0  0  0  0  0
    1.6303   -1.8921    0.8640 H   0  0  0  0  0  0
    1.6162   -1.9219   -0.9163 H   0  0  0  0  0  0
    3.9738   -1.1068   -0.9485 H   0  0  0  0  0  0
    3.9842   -1.0256    0.8081 H   0  0  0  0  0  0
    5.0916   -3.1385    0.0083 H   0  0  0  0  0  0
    3.6057   -3.6054   -0.8355 H   0  0  0  0  0  0
    3.6290   -3.5203    0.9311 H   0  0  0  0  0  0
  1  2  1  0  0  0
  1 16  1  0  0  0
  1 17  1  0  0  0
  1 18  1  0  0  0
  2  3  1  0  0  0
  2 19  1  0  0  0
  2 20  1  0  0  0
  3  4  1  0  0  0
  3 21  1  0  0  0
  3 22  1  0  0  0
  4 11  1  0  0  0
  4  5  1  0  0  0
  4 13  1  0  0  0
  5  6  2  0  0  0
  5  7  1  0  0  0
  7  8  1  0  0  0
  8  9  2  0  0  0
  8 10  1  0  0  0
 10 11  1  0  0  0
 10 23  1  0  0  0
 11 12  2  0  0  0
 13 14  1  0  0  0
 13 24  1  0  0  0
 13 25  1  0  0  0
 14 15  1  0  0  0
 14 26  1  0  0  0
 14 27  1  0  0  0
 15 28  1  0  0  0
 15 29  1  0  0  0
 15 30  1  0  0  0
M  END
>  <i_m_Spin_multiplicity> (1)
1

>  <s_j_Task> (1)
Single Point

>  <s_j_QM_Method> (1)
DFT(b3lyp-d3)

>  <s_j_QM_Basis> (1)
cc-pvtz(-f)

>  <i_j_Number_of_canonical_orbitals> (1)
476

>  <i_j_Geometry_convergence_category> (1)
0

>  <r_j_Gas_Phase_Energy> (1)
-725.677517854198

>  <r_j_Final_Energy> (1)
-725.677517854198

>  <r_j_HOMO> (1)
-0.0880998176037922

>  <r_j_LUMO> (1)
0.121652984737024

>  <r_j_Polarizability> (1)
142.135912799457

>  <r_j_QM_Dipole_(debye)> (1)
5.85618955191777

>  <r_j_QM_Dipole_X_(debye)> (1)
-2.82146096772372

>  <r_j_QM_Dipole_Y_(debye)> (1)
-3.9113687202669

>  <r_j_QM_Dipole_Z_(debye)> (1)
-3.3219736317015

>  <r_j_Lowest_Frequency_(cm-1)> (1)
51.3052524493796

>  <r_j_Highest_Frequency_(cm-1)> (1)
3551.50944279422

>  <r_j_2nd_Lowest_Frequency_(cm-1)> (1)
86.5825556760632

>  <i_j_Num_Negative_Frequencies> (1)
0

>  <r_j_Zero_Point_Energy_(kcal/mol)> (1)
154.9848964745

>  <r_j_Entropy_(cal/mol/K)_298.15K_1.00E+00atm> (1)
118.595426605567

>  <r_j_Enthalpy_(kcal/mol)_298.15K_1.00E+00atm> (1)
9.79029669682059

>  <r_j_Free_Energy_(kcal/mol)_298.15K_1.00E+00atm> (1)
-25.5689297456291

>  <r_j_Internal_Energy_(kcal/mol)_298.15K_1.00E+00atm> (1)
9.19781110799331

>  <r_j_Heat_Capacity_(cal/mol/K)_298.15K_1.00E+00atm> (1)
55.769887394067

>  <r_j_ln(Q)_298.15K_1.00E+00atm> (1)
43.1553614599108

>  <r_j_Total_Internal_Energy_(au)_298.15K_1.00E+00atm> (1)
-725.415876053665

>  <r_j_Total_Enthalpy_(au)_298.15K_1.00E+00atm> (1)
-725.414931867772

>  <r_j_Total_Free_Energy_(au)_298.15K_1.00E+00atm> (1)
-725.47128038223

>  <r_lp_tautomer_probability> (1)
1

>  <r_epik_Ionization_Penalty> (1)
  1.5838

>  <r_epik_Ionization_Penalty_Charging> (1)
  1.5838

>  <r_epik_Ionization_Penalty_Neutral> (1)
  0.0000

>  <r_epik_State_Penalty> (1)
  1.6806

>  <r_epik_Charging_Adjusted_Penalty> (1)
3.26441

>  <i_epik_Tot_Q> (1)
-1

>  <i_epik_Tot_abs_Q> (1)
1

>  <s_lp_Force_Field> (1)
S-OPLS

>  <r_lp_Energy> (1)
20.252

>  <b_lp_Chiralities_Consistent> (1)
1

$$$$
