7519_Anisol
                    3D
 Schrodinger Suite 2021-3.
 16 16  0  0  1  0            999 V2000
   -0.0165    0.0944    0.0000 C   0  0  0  0  0  0
    1.3947   -0.0494    0.0000 O   0  0  0  0  0  0
    1.9145   -1.3133    0.0000 C   0  0  0  0  0  0
    3.3146   -1.3878    0.0000 C   0  0  0  0  0  0
    3.9440   -2.6265    0.0000 C   0  0  0  0  0  0
    3.1922   -3.8063    0.0000 C   0  0  0  0  0  0
    1.8025   -3.7260    0.0000 C   0  0  0  0  0  0
    1.1531   -2.4878    0.0000 C   0  0  0  0  0  0
   -0.2108    1.1682    0.0000 H   0  0  0  0  0  0
   -0.4713   -0.3537    0.8937 H   0  0  0  0  0  0
   -0.4713   -0.3537   -0.8937 H   0  0  0  0  0  0
    3.8807   -0.4622    0.0000 H   0  0  0  0  0  0
    5.0293   -2.6728    0.0000 H   0  0  0  0  0  0
    3.6865   -4.7728    0.0000 H   0  0  0  0  0  0
    1.2055   -4.6338    0.0000 H   0  0  0  0  0  0
    0.0703   -2.4520    0.0000 H   0  0  0  0  0  0
  1  2  1  0  0  0
  1  9  1  0  0  0
  1 10  1  0  0  0
  1 11  1  0  0  0
  2  3  1  0  0  0
  3  8  1  0  0  0
  3  4  2  0  0  0
  4  5  1  0  0  0
  4 12  1  0  0  0
  5  6  2  0  0  0
  5 13  1  0  0  0
  6  7  1  0  0  0
  6 14  1  0  0  0
  7  8  2  0  0  0
  7 15  1  0  0  0
  8 16  1  0  0  0
M  END
>  <i_m_Spin_multiplicity> (1)
1

>  <s_j_Task> (1)
Single Point

>  <s_j_QM_Method> (1)
DFT(b3lyp-d3)

>  <s_j_QM_Basis> (1)
cc-pvtz(-f)

>  <i_j_Number_of_canonical_orbitals> (1)
251

>  <i_j_Geometry_convergence_category> (1)
0

>  <r_j_Gas_Phase_Energy> (1)
-346.896175713897

>  <r_j_Final_Energy> (1)
-346.896175713897

>  <r_j_HOMO> (1)
-0.237117028711185

>  <r_j_LUMO> (1)
-0.0261221548378414

>  <r_j_Polarizability> (1)
81.9262651237478

>  <r_j_QM_Dipole_(debye)> (1)
1.29029479547886

>  <r_j_QM_Dipole_X_(debye)> (1)
-1.2902306825152

>  <r_j_QM_Dipole_Y_(debye)> (1)
-0.0128625476795943

>  <r_j_QM_Dipole_Z_(debye)> (1)
-1.84195138613298e-06

>  <r_j_Lowest_Frequency_(cm-1)> (1)
111.443198471146

>  <r_j_Highest_Frequency_(cm-1)> (1)
3165.45250208939

>  <r_j_2nd_Lowest_Frequency_(cm-1)> (1)
238.403758345311

>  <i_j_Num_Negative_Frequencies> (1)
0

>  <r_j_Zero_Point_Energy_(kcal/mol)> (1)
83.1142007321977

>  <r_j_Entropy_(cal/mol/K)_298.15K_1.00E+00atm> (1)
80.709220798434

>  <r_j_Enthalpy_(kcal/mol)_298.15K_1.00E+00atm> (1)
4.76984620919452

>  <r_j_Free_Energy_(kcal/mol)_298.15K_1.00E+00atm> (1)
-19.2936079718586

>  <r_j_Internal_Energy_(kcal/mol)_298.15K_1.00E+00atm> (1)
4.17736062036724

>  <r_j_Heat_Capacity_(cal/mol/K)_298.15K_1.00E+00atm> (1)
25.9628974921031

>  <r_j_ln(Q)_298.15K_1.00E+00atm> (1)
32.5638434684074

>  <r_j_Total_Internal_Energy_(au)_298.15K_1.00E+00atm> (1)
-346.757067755331

>  <r_j_Total_Enthalpy_(au)_298.15K_1.00E+00atm> (1)
-346.756123569439

>  <r_j_Total_Free_Energy_(au)_298.15K_1.00E+00atm> (1)
-346.794471124865

>  <r_lp_tautomer_probability> (1)
1

>  <r_epik_Ionization_Penalty> (1)
  0.0000

>  <r_epik_Ionization_Penalty_Charging> (1)
  0.0000

>  <r_epik_Ionization_Penalty_Neutral> (1)
  0.0000

>  <r_epik_State_Penalty> (1)
  0.0000

>  <r_epik_Charging_Adjusted_Penalty> (1)
0

>  <i_epik_Tot_Q> (1)
0

>  <i_epik_Tot_abs_Q> (1)
0

>  <s_lp_Force_Field> (1)
S-OPLS

>  <r_lp_Energy> (1)
12.7049

>  <b_lp_Chiralities_Consistent> (1)
1

$$$$
