75458_Eicosanal
                    3D
 Schrodinger Suite 2021-3.
 61 60  0  0  1  0            999 V2000
   -7.0672    7.7448   -2.2049 C   0  0  0  0  0  0
   -6.3844    6.3839   -2.0410 C   0  0  0  0  0  0
   -4.9129    6.4942   -1.6238 C   0  0  0  0  0  0
   -4.2265    5.1336   -1.4629 C   0  0  0  0  0  0
   -2.7524    5.2294   -1.0533 C   0  0  0  0  0  0
   -2.0801    3.8590   -0.9130 C   0  0  0  0  0  0
   -0.5979    3.9389   -0.5244 C   0  0  0  0  0  0
    0.1073    2.5741   -0.4607 C   0  0  0  0  0  0
   -0.3351    1.6885    0.7150 C   0  0  0  0  0  0
    0.1927    0.2471    0.6467 C   0  0  0  0  0  0
    1.7210    0.1195    0.6708 C   0  0  0  0  0  0
    2.2008   -1.3352    0.6081 C   0  0  0  0  0  0
    3.7265   -1.4712    0.5566 C   0  0  0  0  0  0
    4.2040   -2.9199    0.4069 C   0  0  0  0  0  0
    5.7268   -3.0478    0.2904 C   0  0  0  0  0  0
    6.2007   -4.4874    0.0621 C   0  0  0  0  0  0
    7.7197   -4.6029   -0.1052 C   0  0  0  0  0  0
    8.1875   -6.0337   -0.3930 C   0  0  0  0  0  0
    9.7133   -6.1342   -0.5760 C   0  0  0  0  0  0
   10.1366   -7.5280   -0.9750 C   0  0  0  0  0  0
   10.9103   -8.2230   -0.3542 O   0  0  0  0  0  0
   -8.1153    7.6366   -2.5030 H   0  0  0  0  0  0
   -6.5636    8.3487   -2.9687 H   0  0  0  0  0  0
   -7.0436    8.3131   -1.2678 H   0  0  0  0  0  0
   -6.9270    5.7870   -1.2952 H   0  0  0  0  0  0
   -6.4505    5.8232   -2.9835 H   0  0  0  0  0  0
   -4.3681    7.0918   -2.3690 H   0  0  0  0  0  0
   -4.8435    7.0529   -0.6793 H   0  0  0  0  0  0
   -4.7720    4.5380   -0.7167 H   0  0  0  0  0  0
   -4.3030    4.5761   -2.4076 H   0  0  0  0  0  0
   -2.2063    5.8295   -1.7953 H   0  0  0  0  0  0
   -2.6713    5.7761   -0.1029 H   0  0  0  0  0  0
   -2.6328    3.2667   -0.1720 H   0  0  0  0  0  0
   -2.1707    3.3139   -1.8639 H   0  0  0  0  0  0
   -0.0786    4.5748   -1.2541 H   0  0  0  0  0  0
   -0.4992    4.4484    0.4450 H   0  0  0  0  0  0
   -0.0684    2.0366   -1.4045 H   0  0  0  0  0  0
    1.1902    2.7370   -0.4030 H   0  0  0  0  0  0
   -0.0128    2.1559    1.6566 H   0  0  0  0  0  0
   -1.4305    1.6510    0.7549 H   0  0  0  0  0  0
   -0.2260   -0.3284    1.4836 H   0  0  0  0  0  0
   -0.1897   -0.2281   -0.2685 H   0  0  0  0  0  0
    2.1528    0.6687   -0.1759 H   0  0  0  0  0  0
    2.1148    0.6002    1.5780 H   0  0  0  0  0  0
    1.8104   -1.8906    1.4728 H   0  0  0  0  0  0
    1.7676   -1.8169   -0.2805 H   0  0  0  0  0  0
    4.1117   -0.8782   -0.2854 H   0  0  0  0  0  0
    4.1663   -1.0304    1.4626 H   0  0  0  0  0  0
    3.8491   -3.5153    1.2601 H   0  0  0  0  0  0
    3.7367   -3.3616   -0.4851 H   0  0  0  0  0  0
    6.0782   -2.4180   -0.5396 H   0  0  0  0  0  0
    6.2001   -2.6449    1.1971 H   0  0  0  0  0  0
    5.8748   -5.1197    0.9000 H   0  0  0  0  0  0
    5.7069   -4.8919   -0.8331 H   0  0  0  0  0  0
    8.0459   -3.9465   -0.9245 H   0  0  0  0  0  0
    8.2190   -4.2306    0.8000 H   0  0  0  0  0  0
    7.8766   -6.6965    0.4251 H   0  0  0  0  0  0
    7.6855   -6.4047   -1.2976 H   0  0  0  0  0  0
   10.0227   -5.4469   -1.3780 H   0  0  0  0  0  0
   10.2472   -5.8553    0.3377 H   0  0  0  0  0  0
    9.6608   -7.9031   -1.9131 H   0  0  0  0  0  0
  1  2  1  0  0  0
  1 22  1  0  0  0
  1 23  1  0  0  0
  1 24  1  0  0  0
  2  3  1  0  0  0
  2 25  1  0  0  0
  2 26  1  0  0  0
  3  4  1  0  0  0
  3 27  1  0  0  0
  3 28  1  0  0  0
  4  5  1  0  0  0
  4 29  1  0  0  0
  4 30  1  0  0  0
  5  6  1  0  0  0
  5 31  1  0  0  0
  5 32  1  0  0  0
  6  7  1  0  0  0
  6 33  1  0  0  0
  6 34  1  0  0  0
  7  8  1  0  0  0
  7 35  1  0  0  0
  7 36  1  0  0  0
  8  9  1  0  0  0
  8 37  1  0  0  0
  8 38  1  0  0  0
  9 10  1  0  0  0
  9 39  1  0  0  0
  9 40  1  0  0  0
 10 11  1  0  0  0
 10 41  1  0  0  0
 10 42  1  0  0  0
 11 12  1  0  0  0
 11 43  1  0  0  0
 11 44  1  0  0  0
 12 13  1  0  0  0
 12 45  1  0  0  0
 12 46  1  0  0  0
 13 14  1  0  0  0
 13 47  1  0  0  0
 13 48  1  0  0  0
 14 15  1  0  0  0
 14 49  1  0  0  0
 14 50  1  0  0  0
 15 16  1  0  0  0
 15 51  1  0  0  0
 15 52  1  0  0  0
 16 17  1  0  0  0
 16 53  1  0  0  0
 16 54  1  0  0  0
 17 18  1  0  0  0
 17 55  1  0  0  0
 17 56  1  0  0  0
 18 19  1  0  0  0
 18 57  1  0  0  0
 18 58  1  0  0  0
 19 20  1  0  0  0
 19 59  1  0  0  0
 19 60  1  0  0  0
 20 21  2  0  0  0
 20 61  1  0  0  0
M  END
>  <i_m_Spin_multiplicity> (1)
1

>  <s_j_Task> (1)
Single Point

>  <s_j_QM_Method> (1)
DFT(b3lyp-d3)

>  <s_j_QM_Basis> (1)
cc-pvtz(-f)

>  <i_j_Number_of_canonical_orbitals> (1)
837

>  <i_j_Geometry_convergence_category> (1)
4

>  <r_j_Gas_Phase_Energy> (1)
-861.818485072468

>  <r_j_Final_Energy> (1)
-861.818485072468

>  <r_j_HOMO> (1)
-0.266731759229884

>  <r_j_LUMO> (1)
-0.0681012106193955

>  <r_j_Polarizability> (1)
252.333757383487

>  <r_j_QM_Dipole_(debye)> (1)
3.15940484021848

>  <r_j_QM_Dipole_X_(debye)> (1)
-2.11520221760297

>  <r_j_QM_Dipole_Y_(debye)> (1)
2.18001748916999

>  <r_j_QM_Dipole_Z_(debye)> (1)
-0.869069772778007

>  <r_j_Lowest_Frequency_(cm-1)> (1)
21.5674520648739

>  <r_j_Highest_Frequency_(cm-1)> (1)
3049.44509092125

>  <r_j_2nd_Lowest_Frequency_(cm-1)> (1)
34.8604402421829

>  <i_j_Num_Negative_Frequencies> (1)
0

>  <r_j_Zero_Point_Energy_(kcal/mol)> (1)
356.76370574024

>  <r_j_Entropy_(cal/mol/K)_298.15K_1.00E+00atm> (1)
168.038172082207

>  <r_j_Enthalpy_(kcal/mol)_298.15K_1.00E+00atm> (1)
16.5428465761

>  <r_j_Free_Energy_(kcal/mol)_298.15K_1.00E+00atm> (1)
-33.5577344302101

>  <r_j_Internal_Energy_(kcal/mol)_298.15K_1.00E+00atm> (1)
15.9503609872728

>  <r_j_Heat_Capacity_(cal/mol/K)_298.15K_1.00E+00atm> (1)
96.1790265357718

>  <r_j_ln(Q)_298.15K_1.00E+00atm> (1)
56.6389040729784

>  <r_j_Total_Internal_Energy_(au)_298.15K_1.00E+00atm> (1)
-861.224527396056

>  <r_j_Total_Enthalpy_(au)_298.15K_1.00E+00atm> (1)
-861.223583210164

>  <r_j_Total_Free_Energy_(au)_298.15K_1.00E+00atm> (1)
-861.303423568599

>  <r_lp_tautomer_probability> (1)
1

>  <r_epik_Ionization_Penalty> (1)
  0.0000

>  <r_epik_Ionization_Penalty_Charging> (1)
  0.0000

>  <r_epik_Ionization_Penalty_Neutral> (1)
  0.0000

>  <r_epik_State_Penalty> (1)
  0.0000

>  <r_epik_Charging_Adjusted_Penalty> (1)
0

>  <i_epik_Tot_Q> (1)
0

>  <i_epik_Tot_abs_Q> (1)
0

>  <s_lp_Force_Field> (1)
S-OPLS

>  <r_lp_Energy> (1)
10.464681

>  <b_lp_Chiralities_Consistent> (1)
1

$$$$
