75481_Diethyl itaconate
                    3D
 Schrodinger Suite 2021-3.
 27 26  0  0  1  0            999 V2000
    0.9716    4.1259   -1.0920 C   0  0  0  0  0  0
   -0.2403    3.3281   -0.6521 C   0  0  0  0  0  0
    0.1482    1.9351   -0.6515 O   0  0  0  0  0  0
   -0.7602    1.0723   -0.1535 C   0  0  0  0  0  0
   -1.8758    1.3873    0.1939 O   0  0  0  0  0  0
   -0.2311   -0.3573   -0.1199 C   0  0  0  0  0  0
    1.2704   -0.4819   -0.1287 C   0  0  0  0  0  0
    1.9576   -1.1483   -1.0622 C   0  0  0  0  0  0
    1.9457    0.1881    1.0241 C   0  0  0  0  0  0
    1.3361    0.7250    1.9309 O   0  0  0  0  0  0
    3.2916    0.1413    0.9587 O   0  0  0  0  0  0
    3.9968    0.7843    2.0449 C   0  0  0  0  0  0
    5.4787    0.6520    1.7538 C   0  0  0  0  0  0
    0.7322    5.1937   -1.1080 H   0  0  0  0  0  0
    1.2922    3.8272   -2.0943 H   0  0  0  0  0  0
    1.8054    3.9673   -0.4020 H   0  0  0  0  0  0
   -0.5723    3.5997    0.3547 H   0  0  0  0  0  0
   -1.0921    3.4587   -1.3280 H   0  0  0  0  0  0
   -0.6545   -0.8033    0.7845 H   0  0  0  0  0  0
   -0.6612   -0.8869   -0.9767 H   0  0  0  0  0  0
    1.4524   -1.6341   -1.8918 H   0  0  0  0  0  0
    3.0379   -1.2233   -1.0213 H   0  0  0  0  0  0
    3.6770    1.8299    2.1037 H   0  0  0  0  0  0
    3.7141    0.3024    2.9866 H   0  0  0  0  0  0
    6.0598    1.1256    2.5509 H   0  0  0  0  0  0
    5.7321    1.1356    0.8060 H   0  0  0  0  0  0
    5.7696   -0.4006    1.6922 H   0  0  0  0  0  0
  1  2  1  0  0  0
  1 14  1  0  0  0
  1 15  1  0  0  0
  1 16  1  0  0  0
  2  3  1  0  0  0
  2 17  1  0  0  0
  2 18  1  0  0  0
  3  4  1  0  0  0
  4  5  2  0  0  0
  4  6  1  0  0  0
  6  7  1  0  0  0
  6 19  1  0  0  0
  6 20  1  0  0  0
  7  8  2  0  0  0
  7  9  1  0  0  0
  8 21  1  0  0  0
  8 22  1  0  0  0
  9 10  2  0  0  0
  9 11  1  0  0  0
 11 12  1  0  0  0
 12 13  1  0  0  0
 12 23  1  0  0  0
 12 24  1  0  0  0
 13 25  1  0  0  0
 13 26  1  0  0  0
 13 27  1  0  0  0
M  END
>  <i_m_Spin_multiplicity> (1)
1

>  <s_j_Task> (1)
Single Point

>  <s_j_QM_Method> (1)
DFT(b3lyp-d3)

>  <s_j_QM_Basis> (1)
cc-pvtz(-f)

>  <i_j_Number_of_canonical_orbitals> (1)
422

>  <i_j_Geometry_convergence_category> (1)
1

>  <r_j_Gas_Phase_Energy> (1)
-652.545105135136

>  <r_j_Final_Energy> (1)
-652.545105135136

>  <r_j_HOMO> (1)
-0.261759773895819

>  <r_j_LUMO> (1)
-0.0575871646483944

>  <r_j_Polarizability> (1)
119.198932973286

>  <r_j_QM_Dipole_(debye)> (1)
3.88675277892851

>  <r_j_QM_Dipole_X_(debye)> (1)
3.54013221638413

>  <r_j_QM_Dipole_Y_(debye)> (1)
-0.212365910095571

>  <r_j_QM_Dipole_Z_(debye)> (1)
-1.59034957643186

>  <r_j_Lowest_Frequency_(cm-1)> (1)
38.9700942085931

>  <r_j_Highest_Frequency_(cm-1)> (1)
3201.34646029161

>  <r_j_2nd_Lowest_Frequency_(cm-1)> (1)
77.5323109405337

>  <i_j_Num_Negative_Frequencies> (1)
0

>  <r_j_Zero_Point_Energy_(kcal/mol)> (1)
139.934414077674

>  <r_j_Entropy_(cal/mol/K)_298.15K_1.00E+00atm> (1)
115.826760102633

>  <r_j_Enthalpy_(kcal/mol)_298.15K_1.00E+00atm> (1)
9.30475444020827

>  <r_j_Free_Energy_(kcal/mol)_298.15K_1.00E+00atm> (1)
-25.2289940843917

>  <r_j_Internal_Energy_(kcal/mol)_298.15K_1.00E+00atm> (1)
8.712268851381

>  <r_j_Heat_Capacity_(cal/mol/K)_298.15K_1.00E+00atm> (1)
50.9660949941051

>  <r_j_ln(Q)_298.15K_1.00E+00atm> (1)
42.5816164310903

>  <r_j_Total_Internal_Energy_(au)_298.15K_1.00E+00atm> (1)
-652.308221565986

>  <r_j_Total_Enthalpy_(au)_298.15K_1.00E+00atm> (1)
-652.307277380094

>  <r_j_Total_Free_Energy_(au)_298.15K_1.00E+00atm> (1)
-652.362310411746

>  <r_lp_tautomer_probability> (1)
1

>  <r_epik_Ionization_Penalty> (1)
  0.0000

>  <r_epik_Ionization_Penalty_Charging> (1)
  0.0000

>  <r_epik_Ionization_Penalty_Neutral> (1)
  0.0000

>  <r_epik_State_Penalty> (1)
  0.0000

>  <r_epik_Charging_Adjusted_Penalty> (1)
0

>  <i_epik_Tot_Q> (1)
0

>  <i_epik_Tot_abs_Q> (1)
0

>  <s_lp_Force_Field> (1)
S-OPLS

>  <r_lp_Energy> (1)
6.012821

>  <b_lp_Chiralities_Consistent> (1)
1

>  <s_epik_Chemistry_Notes> (1)
This compound has an ester and may undergo hydrolysis at high or low pH.

$$$$
