75502_Eicosanedioic acid
                    3D
 Schrodinger Suite 2021-3.
 60 59  0  0  1  0            999 V2000
   -0.0211   -0.0825   -0.8415 C   0  0  0  0  0  0
    1.5110   -0.1534   -0.8416 C   0  0  0  0  0  0
    2.0613   -1.5819   -0.7504 C   0  0  0  0  0  0
    3.5929   -1.6536   -0.7845 C   0  0  0  0  0  0
    4.1466   -3.0697   -0.5846 C   0  0  0  0  0  0
    5.6783   -3.1404   -0.6579 C   0  0  0  0  0  0
    6.2711   -4.5135   -0.3013 C   0  0  0  0  0  0
    5.8787   -5.6612   -1.2430 C   0  0  0  0  0  0
    6.5672   -6.9897   -0.9027 C   0  0  0  0  0  0
    6.1837   -8.1518   -1.8181 C   0  0  0  0  0  0
    6.9331   -9.5064   -1.5103 C   0  0  0  0  0  0
    6.5369  -10.4840   -2.1913 O   0  0  0  0  0  0
    7.8355   -9.4465   -0.6349 O   0  5  0  0  0  0
   -0.5695    1.3493   -0.8061 C   0  0  0  0  0  0
   -2.1011    1.4239   -0.8416 C   0  0  0  0  0  0
   -2.6509    2.8444   -0.6623 C   0  0  0  0  0  0
   -4.1826    2.9202   -0.7400 C   0  0  0  0  0  0
   -4.7722    4.2804   -0.3324 C   0  0  0  0  0  0
   -4.3836    5.4594   -1.2327 C   0  0  0  0  0  0
   -5.0314    6.7810   -0.8012 C   0  0  0  0  0  0
   -4.6723    7.9523   -1.7204 C   0  0  0  0  0  0
   -5.2948    7.8795   -3.1691 C   0  0  0  0  0  0
   -4.9321    8.8047   -3.9340 O   0  0  0  0  0  0
   -6.0860    6.9217   -3.3867 O   0  5  0  0  0  0
   -0.4092   -0.6036   -1.7286 H   0  0  0  0  0  0
   -0.4089   -0.6365    0.0260 H   0  0  0  0  0  0
    1.8969    0.3317   -1.7498 H   0  0  0  0  0  0
    1.9005    0.4353    0.0020 H   0  0  0  0  0  0
    1.6977   -2.0481    0.1769 H   0  0  0  0  0  0
    1.6510   -2.1871   -1.5715 H   0  0  0  0  0  0
    3.9531   -1.2511   -1.7426 H   0  0  0  0  0  0
    4.0037   -0.9917   -0.0075 H   0  0  0  0  0  0
    3.8142   -3.4522    0.3919 H   0  0  0  0  0  0
    3.7089   -3.7399   -1.3349 H   0  0  0  0  0  0
    6.0009   -2.8562   -1.6707 H   0  0  0  0  0  0
    6.0970   -2.3791    0.0175 H   0  0  0  0  0  0
    7.3670   -4.4324   -0.2869 H   0  0  0  0  0  0
    5.9777   -4.7755    0.7262 H   0  0  0  0  0  0
    4.7887   -5.8030   -1.2212 H   0  0  0  0  0  0
    6.1215   -5.3740   -2.2783 H   0  0  0  0  0  0
    7.6576   -6.8719   -0.9310 H   0  0  0  0  0  0
    6.3431   -7.2684    0.1357 H   0  0  0  0  0  0
    5.1017   -8.3438   -1.7684 H   0  0  0  0  0  0
    6.3849   -7.8899   -2.8687 H   0  0  0  0  0  0
   -0.2040    1.8494    0.1029 H   0  0  0  0  0  0
   -0.1584    1.9219   -1.6496 H   0  0  0  0  0  0
   -2.4630    1.0062   -1.7923 H   0  0  0  0  0  0
   -2.5127    0.7761   -0.0530 H   0  0  0  0  0  0
   -2.3187    3.2353    0.3113 H   0  0  0  0  0  0
   -2.2097    3.5052   -1.4187 H   0  0  0  0  0  0
   -4.5029    2.6763   -1.7627 H   0  0  0  0  0  0
   -4.6044    2.1361   -0.0923 H   0  0  0  0  0  0
   -5.8680    4.1982   -0.3215 H   0  0  0  0  0  0
   -4.4757    4.4957    0.7071 H   0  0  0  0  0  0
   -3.2900    5.5802   -1.2397 H   0  0  0  0  0  0
   -4.7016    5.2720   -2.2643 H   0  0  0  0  0  0
   -6.1206    6.6524   -0.8327 H   0  0  0  0  0  0
   -4.7509    6.9986    0.2443 H   0  0  0  0  0  0
   -5.0062    8.9004   -1.2745 H   0  0  0  0  0  0
   -3.5811    8.0456   -1.8240 H   0  0  0  0  0  0
  1  2  1  0  0  0
  1 14  1  0  0  0
  1 25  1  0  0  0
  1 26  1  0  0  0
  2  3  1  0  0  0
  2 27  1  0  0  0
  2 28  1  0  0  0
  3  4  1  0  0  0
  3 29  1  0  0  0
  3 30  1  0  0  0
  4  5  1  0  0  0
  4 31  1  0  0  0
  4 32  1  0  0  0
  5  6  1  0  0  0
  5 33  1  0  0  0
  5 34  1  0  0  0
  6  7  1  0  0  0
  6 35  1  0  0  0
  6 36  1  0  0  0
  7  8  1  0  0  0
  7 37  1  0  0  0
  7 38  1  0  0  0
  8  9  1  0  0  0
  8 39  1  0  0  0
  8 40  1  0  0  0
  9 10  1  0  0  0
  9 41  1  0  0  0
  9 42  1  0  0  0
 10 11  1  0  0  0
 10 43  1  0  0  0
 10 44  1  0  0  0
 11 12  2  0  0  0
 11 13  1  0  0  0
 14 15  1  0  0  0
 14 45  1  0  0  0
 14 46  1  0  0  0
 15 16  1  0  0  0
 15 47  1  0  0  0
 15 48  1  0  0  0
 16 17  1  0  0  0
 16 49  1  0  0  0
 16 50  1  0  0  0
 17 18  1  0  0  0
 17 51  1  0  0  0
 17 52  1  0  0  0
 18 19  1  0  0  0
 18 53  1  0  0  0
 18 54  1  0  0  0
 19 20  1  0  0  0
 19 55  1  0  0  0
 19 56  1  0  0  0
 20 21  1  0  0  0
 20 57  1  0  0  0
 20 58  1  0  0  0
 21 22  1  0  0  0
 21 59  1  0  0  0
 21 60  1  0  0  0
 22 23  2  0  0  0
 22 24  1  0  0  0
M  END
>  <i_m_Spin_multiplicity> (1)
1

>  <s_j_Task> (1)
Single Point

>  <s_j_QM_Method> (1)
DFT(b3lyp-d3)

>  <s_j_QM_Basis> (1)
cc-pvtz(-f)

>  <i_j_Number_of_canonical_orbitals> (1)
870

>  <i_j_Geometry_convergence_category> (1)
3

>  <r_j_Gas_Phase_Energy> (1)
-1085.25523710581

>  <r_j_Final_Energy> (1)
-1085.25523710581

>  <r_j_HOMO> (1)
0.0508593509551083

>  <r_j_LUMO> (1)
0.134747052095435

>  <r_j_Polarizability> (1)
267.848470326559

>  <r_j_QM_Dipole_(debye)> (1)
11.9664557195842

>  <r_j_QM_Dipole_X_(debye)> (1)
-0.90773815151891

>  <r_j_QM_Dipole_Y_(debye)> (1)
6.48198541269379

>  <r_j_QM_Dipole_Z_(debye)> (1)
10.0177811438797

>  <r_j_Lowest_Frequency_(cm-1)> (1)
16.8770032374732

>  <r_j_Highest_Frequency_(cm-1)> (1)
3032.17692280728

>  <r_j_2nd_Lowest_Frequency_(cm-1)> (1)
27.0884847948909

>  <i_j_Num_Negative_Frequencies> (1)
0

>  <r_j_Zero_Point_Energy_(kcal/mol)> (1)
334.819627480695

>  <r_j_Entropy_(cal/mol/K)_298.15K_1.00E+00atm> (1)
175.893116791756

>  <r_j_Enthalpy_(kcal/mol)_298.15K_1.00E+00atm> (1)
17.4397329888174

>  <r_j_Free_Energy_(kcal/mol)_298.15K_1.00E+00atm> (1)
-35.0027997826446

>  <r_j_Internal_Energy_(kcal/mol)_298.15K_1.00E+00atm> (1)
16.8472473999901

>  <r_j_Heat_Capacity_(cal/mol/K)_298.15K_1.00E+00atm> (1)
101.540252251995

>  <r_j_ln(Q)_298.15K_1.00E+00atm> (1)
59.0778922605135

>  <r_j_Total_Internal_Energy_(au)_298.15K_1.00E+00atm> (1)
-1084.6948202648

>  <r_j_Total_Enthalpy_(au)_298.15K_1.00E+00atm> (1)
-1084.6938760789

>  <r_j_Total_Free_Energy_(au)_298.15K_1.00E+00atm> (1)
-1084.77744857506

>  <r_epik_Ionization_Penalty> (1)
  0.0097

>  <r_epik_Ionization_Penalty_Charging> (1)
  0.0097

>  <r_epik_Ionization_Penalty_Neutral> (1)
  0.0000

>  <r_epik_State_Penalty> (1)
  0.0074

>  <r_epik_Charging_Adjusted_Penalty> (1)
0.0170680524587756

>  <i_epik_Tot_Q> (1)
-2

>  <i_epik_Tot_abs_Q> (1)
2

>  <s_lp_Force_Field> (1)
S-OPLS

>  <r_lp_Energy> (1)
13.442397

>  <b_lp_Chiralities_Consistent> (1)
1

$$$$
