75519_Methyl tricosanoate
                    3D
 Schrodinger Suite 2021-3.
 74 73  0  0  1  0            999 V2000
  -11.2044    7.0632   -0.6467 C   0  0  0  0  0  0
  -10.2403    7.6719    0.3783 C   0  0  0  0  0  0
   -8.7550    7.4418    0.0578 C   0  0  0  0  0  0
   -8.3126    5.9727    0.0987 C   0  0  0  0  0  0
   -6.8060    5.7968   -0.1241 C   0  0  0  0  0  0
   -6.3385    4.3375   -0.0681 C   0  0  0  0  0  0
   -4.8243    4.1863   -0.2522 C   0  0  0  0  0  0
   -4.3277    2.7380   -0.1702 C   0  0  0  0  0  0
   -2.8057    2.6226   -0.3111 C   0  0  0  0  0  0
   -2.2731    1.1886   -0.2069 C   0  0  0  0  0  0
   -0.7450    1.1171   -0.3047 C   0  0  0  0  0  0
   -0.1720   -0.3001   -0.1879 C   0  0  0  0  0  0
    1.3596   -0.3228   -0.2475 C   0  0  0  0  0  0
    1.9751   -1.7220   -0.1316 C   0  0  0  0  0  0
    3.5078   -1.6939   -0.1586 C   0  0  0  0  0  0
    4.1572   -3.0808   -0.0623 C   0  0  0  0  0  0
    5.6911   -3.0457    0.0362 C   0  0  0  0  0  0
    6.3944   -2.4886   -1.2086 C   0  0  0  0  0  0
    7.9198   -2.4286   -1.0666 C   0  0  0  0  0  0
    8.6153   -1.8679   -2.3145 C   0  0  0  0  0  0
   10.1438   -1.7743   -2.2084 C   0  0  0  0  0  0
   10.6202   -0.7618   -1.1634 C   0  0  0  0  0  0
   12.1232   -0.5767   -1.1683 C   0  0  0  0  0  0
   12.8998   -1.0903   -1.9446 O   0  0  0  0  0  0
   12.5074    0.2627   -0.1774 O   0  0  0  0  0  0
   13.9207    0.5182   -0.1072 C   0  0  0  0  0  0
  -12.2446    7.3056   -0.4050 H   0  0  0  0  0  0
  -11.1216    5.9723   -0.6847 H   0  0  0  0  0  0
  -10.9982    7.4459   -1.6534 H   0  0  0  0  0  0
  -10.4242    8.7519    0.4441 H   0  0  0  0  0  0
  -10.4605    7.2649    1.3749 H   0  0  0  0  0  0
   -8.5296    7.8598   -0.9342 H   0  0  0  0  0  0
   -8.1455    8.0121    0.7721 H   0  0  0  0  0  0
   -8.5892    5.5391    1.0709 H   0  0  0  0  0  0
   -8.8575    5.3937   -0.6584 H   0  0  0  0  0  0
   -6.5291    6.2300   -1.0961 H   0  0  0  0  0  0
   -6.2591    6.3791    0.6314 H   0  0  0  0  0  0
   -6.6325    3.8988    0.8962 H   0  0  0  0  0  0
   -6.8627    3.7542   -0.8387 H   0  0  0  0  0  0
   -4.5309    4.6165   -1.2207 H   0  0  0  0  0  0
   -4.3085    4.7862    0.5116 H   0  0  0  0  0  0
   -4.6381    2.3007    0.7896 H   0  0  0  0  0  0
   -4.8168    2.1366   -0.9498 H   0  0  0  0  0  0
   -2.4963    3.0548   -1.2737 H   0  0  0  0  0  0
   -2.3268    3.2398    0.4628 H   0  0  0  0  0  0
   -2.5981    0.7471    0.7461 H   0  0  0  0  0  0
   -2.7227    0.5704   -0.9970 H   0  0  0  0  0  0
   -0.4219    1.5600   -1.2579 H   0  0  0  0  0  0
   -0.3062    1.7471    0.4826 H   0  0  0  0  0  0
   -0.5075   -0.7538    0.7557 H   0  0  0  0  0  0
   -0.5815   -0.9300   -0.9905 H   0  0  0  0  0  0
    1.6915    0.1401   -1.1881 H   0  0  0  0  0  0
    1.7587    0.3126    0.5564 H   0  0  0  0  0  0
    1.6336   -2.1974    0.7990 H   0  0  0  0  0  0
    1.6043   -2.3553   -0.9502 H   0  0  0  0  0  0
    3.8346   -1.1920   -1.0786 H   0  0  0  0  0  0
    3.8708   -1.0696    0.6712 H   0  0  0  0  0  0
    3.7565   -3.5996    0.8191 H   0  0  0  0  0  0
    3.8593   -3.6844   -0.9316 H   0  0  0  0  0  0
    5.9794   -2.4455    0.9116 H   0  0  0  0  0  0
    6.0639   -4.0607    0.2292 H   0  0  0  0  0  0
    6.1293   -3.1033   -2.0809 H   0  0  0  0  0  0
    6.0243   -1.4784   -1.4261 H   0  0  0  0  0  0
    8.1661   -1.8139   -0.1902 H   0  0  0  0  0  0
    8.3126   -3.4331   -0.8529 H   0  0  0  0  0  0
    8.3596   -2.5000   -3.1750 H   0  0  0  0  0  0
    8.2061   -0.8721   -2.5394 H   0  0  0  0  0  0
   10.5651   -2.7594   -1.9729 H   0  0  0  0  0  0
   10.5670   -1.4947   -3.1789 H   0  0  0  0  0  0
   10.1666    0.2235   -1.3362 H   0  0  0  0  0  0
   10.3240   -1.0453   -0.1474 H   0  0  0  0  0  0
   14.0568    1.2022    0.7307 H   0  0  0  0  0  0
   14.2779    0.9724   -1.0355 H   0  0  0  0  0  0
   14.4733   -0.4101    0.0609 H   0  0  0  0  0  0
  1  2  1  0  0  0
  1 27  1  0  0  0
  1 28  1  0  0  0
  1 29  1  0  0  0
  2  3  1  0  0  0
  2 30  1  0  0  0
  2 31  1  0  0  0
  3  4  1  0  0  0
  3 32  1  0  0  0
  3 33  1  0  0  0
  4  5  1  0  0  0
  4 34  1  0  0  0
  4 35  1  0  0  0
  5  6  1  0  0  0
  5 36  1  0  0  0
  5 37  1  0  0  0
  6  7  1  0  0  0
  6 38  1  0  0  0
  6 39  1  0  0  0
  7  8  1  0  0  0
  7 40  1  0  0  0
  7 41  1  0  0  0
  8  9  1  0  0  0
  8 42  1  0  0  0
  8 43  1  0  0  0
  9 10  1  0  0  0
  9 44  1  0  0  0
  9 45  1  0  0  0
 10 11  1  0  0  0
 10 46  1  0  0  0
 10 47  1  0  0  0
 11 12  1  0  0  0
 11 48  1  0  0  0
 11 49  1  0  0  0
 12 13  1  0  0  0
 12 50  1  0  0  0
 12 51  1  0  0  0
 13 14  1  0  0  0
 13 52  1  0  0  0
 13 53  1  0  0  0
 14 15  1  0  0  0
 14 54  1  0  0  0
 14 55  1  0  0  0
 15 16  1  0  0  0
 15 56  1  0  0  0
 15 57  1  0  0  0
 16 17  1  0  0  0
 16 58  1  0  0  0
 16 59  1  0  0  0
 17 18  1  0  0  0
 17 60  1  0  0  0
 17 61  1  0  0  0
 18 19  1  0  0  0
 18 62  1  0  0  0
 18 63  1  0  0  0
 19 20  1  0  0  0
 19 64  1  0  0  0
 19 65  1  0  0  0
 20 21  1  0  0  0
 20 66  1  0  0  0
 20 67  1  0  0  0
 21 22  1  0  0  0
 21 68  1  0  0  0
 21 69  1  0  0  0
 22 23  1  0  0  0
 22 70  1  0  0  0
 22 71  1  0  0  0
 23 24  2  0  0  0
 23 25  1  0  0  0
 25 26  1  0  0  0
 26 72  1  0  0  0
 26 73  1  0  0  0
 26 74  1  0  0  0
M  END
>  <i_m_Spin_multiplicity> (1)
1

>  <s_j_Task> (1)
Single Point

>  <s_j_QM_Method> (1)
DFT(b3lyp-d3)

>  <s_j_QM_Basis> (1)
cc-pvtz(-f)

>  <i_j_Number_of_canonical_orbitals> (1)
1022

>  <i_j_Geometry_convergence_category> (1)
3

>  <r_j_Gas_Phase_Energy> (1)
-1094.40974751737

>  <r_j_Final_Energy> (1)
-1094.40974751737

>  <r_j_HOMO> (1)
-0.266671757527929

>  <r_j_LUMO> (1)
0.00700179181231708

>  <r_j_Polarizability> (1)
304.767331525243

>  <r_j_QM_Dipole_(debye)> (1)
1.70033789223909

>  <r_j_QM_Dipole_X_(debye)> (1)
-0.786065935269947

>  <r_j_QM_Dipole_Y_(debye)> (1)
0.873631044094228

>  <r_j_QM_Dipole_Z_(debye)> (1)
1.22882793424754

>  <r_j_Lowest_Frequency_(cm-1)> (1)
18.453454056505

>  <r_j_Highest_Frequency_(cm-1)> (1)
3106.85321078317

>  <r_j_2nd_Lowest_Frequency_(cm-1)> (1)
28.5611672357633

>  <i_j_Num_Negative_Frequencies> (1)
0

>  <r_j_Zero_Point_Energy_(kcal/mol)> (1)
431.72889719507

>  <r_j_Entropy_(cal/mol/K)_298.15K_1.00E+00atm> (1)
193.680636569507

>  <r_j_Enthalpy_(kcal/mol)_298.15K_1.00E+00atm> (1)
20.1509416420946

>  <r_j_Free_Energy_(kcal/mol)_298.15K_1.00E+00atm> (1)
-37.5949401511038

>  <r_j_Internal_Energy_(kcal/mol)_298.15K_1.00E+00atm> (1)
19.5584560532673

>  <r_j_Heat_Capacity_(cal/mol/K)_298.15K_1.00E+00atm> (1)
118.635322031863

>  <r_j_ln(Q)_298.15K_1.00E+00atm> (1)
63.4529191258755

>  <r_j_Total_Internal_Energy_(au)_298.15K_1.00E+00atm> (1)
-1093.69057533779

>  <r_j_Total_Enthalpy_(au)_298.15K_1.00E+00atm> (1)
-1093.6896311519

>  <r_j_Total_Free_Energy_(au)_298.15K_1.00E+00atm> (1)
-1093.78165507274

>  <r_lp_tautomer_probability> (1)
1

>  <r_epik_Ionization_Penalty> (1)
  0.0000

>  <r_epik_Ionization_Penalty_Charging> (1)
  0.0000

>  <r_epik_Ionization_Penalty_Neutral> (1)
  0.0000

>  <r_epik_State_Penalty> (1)
  0.0000

>  <r_epik_Charging_Adjusted_Penalty> (1)
0

>  <i_epik_Tot_Q> (1)
0

>  <i_epik_Tot_abs_Q> (1)
0

>  <s_lp_Force_Field> (1)
S-OPLS

>  <r_lp_Energy> (1)
11.874312

>  <b_lp_Chiralities_Consistent> (1)
1

>  <s_epik_Chemistry_Notes> (1)
This compound has an ester and may undergo hydrolysis at high or low pH.

$$$$
