75546_Methyl tetracosanoate
                    3D
 Schrodinger Suite 2021-3.
 77 76  0  0  1  0            999 V2000
  -11.3442    0.3298    3.3111 C   0  0  0  0  0  0
  -10.4951    1.1805    4.2629 C   0  0  0  0  0  0
   -8.9805    1.0559    4.0352 C   0  0  0  0  0  0
   -8.4923    1.5870    2.6806 C   0  0  0  0  0  0
   -6.9673    1.5331    2.5320 C   0  0  0  0  0  0
   -6.4584    2.0721    1.1899 C   0  0  0  0  0  0
   -4.9305    2.0339    1.0673 C   0  0  0  0  0  0
   -4.4094    2.5807   -0.2688 C   0  0  0  0  0  0
   -2.8767    2.6457   -0.3693 C   0  0  0  0  0  0
   -2.1814    1.2780   -0.3629 C   0  0  0  0  0  0
   -0.6538    1.3715   -0.4571 C   0  0  0  0  0  0
    0.0337    0.0014   -0.4621 C   0  0  0  0  0  0
    1.5650    0.0767   -0.4717 C   0  0  0  0  0  0
    2.2330   -1.3029   -0.4925 C   0  0  0  0  0  0
    3.7635   -1.2519   -0.4223 C   0  0  0  0  0  0
    4.4118   -2.6406   -0.4618 C   0  0  0  0  0  0
    5.9376   -2.6164   -0.3167 C   0  0  0  0  0  0
    6.5683   -4.0125   -0.3761 C   0  0  0  0  0  0
    8.0860   -4.0127   -0.1605 C   0  0  0  0  0  0
    8.6983   -5.4179   -0.2365 C   0  0  0  0  0  0
   10.2215   -5.4655   -0.0410 C   0  0  0  0  0  0
   10.6820   -5.0594    1.3646 C   0  0  0  0  0  0
   12.2014   -5.2259    1.5520 C   0  0  0  0  0  0
   12.6563   -4.8024    2.9312 C   0  0  0  0  0  0
   13.3760   -3.8612    3.1846 O   0  0  0  0  0  0
   12.1285   -5.6108    3.8837 O   0  0  0  0  0  0
   12.4756   -5.2668    5.2357 C   0  0  0  0  0  0
  -12.4094    0.4080    3.5530 H   0  0  0  0  0  0
  -11.0643   -0.7284    3.3769 H   0  0  0  0  0  0
  -11.2203    0.6399    2.2686 H   0  0  0  0  0  0
  -10.7874    2.2357    4.1703 H   0  0  0  0  0  0
  -10.7215    0.8926    5.2976 H   0  0  0  0  0  0
   -8.4556    1.5969    4.8346 H   0  0  0  0  0  0
   -8.6846    0.0017    4.1380 H   0  0  0  0  0  0
   -8.9523    1.0151    1.8640 H   0  0  0  0  0  0
   -8.8337    2.6249    2.5549 H   0  0  0  0  0  0
   -6.5037    2.1043    3.3493 H   0  0  0  0  0  0
   -6.6266    0.4954    2.6592 H   0  0  0  0  0  0
   -6.9057    1.4923    0.3697 H   0  0  0  0  0  0
   -6.8093    3.1055    1.0561 H   0  0  0  0  0  0
   -4.4873    2.6140    1.8900 H   0  0  0  0  0  0
   -4.5892    1.0001    1.2083 H   0  0  0  0  0  0
   -4.8037    1.9672   -1.0918 H   0  0  0  0  0  0
   -4.8185    3.5889   -0.4202 H   0  0  0  0  0  0
   -2.5997    3.1781   -1.2893 H   0  0  0  0  0  0
   -2.4873    3.2531    0.4607 H   0  0  0  0  0  0
   -2.4438    0.7293    0.5510 H   0  0  0  0  0  0
   -2.5640    0.6745   -1.1989 H   0  0  0  0  0  0
   -0.3732    1.9250   -1.3647 H   0  0  0  0  0  0
   -0.2760    1.9650    0.3880 H   0  0  0  0  0  0
   -0.2914   -0.5689    0.4202 H   0  0  0  0  0  0
   -0.3090   -0.5734   -1.3346 H   0  0  0  0  0  0
    1.8998    0.6586   -1.3423 H   0  0  0  0  0  0
    1.9053    0.6333    0.4134 H   0  0  0  0  0  0
    1.8552   -1.8995    0.3505 H   0  0  0  0  0  0
    1.9273   -1.8400   -1.4018 H   0  0  0  0  0  0
    4.1503   -0.6439   -1.2526 H   0  0  0  0  0  0
    4.0667   -0.7340    0.4990 H   0  0  0  0  0  0
    3.9851   -3.2611    0.3395 H   0  0  0  0  0  0
    4.1428   -3.1395   -1.4040 H   0  0  0  0  0  0
    6.3724   -1.9851   -1.1048 H   0  0  0  0  0  0
    6.2032   -2.1367    0.6363 H   0  0  0  0  0  0
    6.0979   -4.6542    0.3829 H   0  0  0  0  0  0
    6.3368   -4.4746   -1.3465 H   0  0  0  0  0  0
    8.5649   -3.3672   -0.9109 H   0  0  0  0  0  0
    8.3049   -3.5587    0.8148 H   0  0  0  0  0  0
    8.2193   -6.0624    0.5145 H   0  0  0  0  0  0
    8.4523   -5.8570   -1.2126 H   0  0  0  0  0  0
   10.5750   -6.4851   -0.2459 H   0  0  0  0  0  0
   10.7074   -4.8187   -0.7852 H   0  0  0  0  0  0
   10.4137   -4.0152    1.5640 H   0  0  0  0  0  0
   10.1631   -5.6665    2.1157 H   0  0  0  0  0  0
   12.4747   -6.2773    1.4019 H   0  0  0  0  0  0
   12.7528   -4.6204    0.8284 H   0  0  0  0  0  0
   11.9724   -5.9997    5.8665 H   0  0  0  0  0  0
   12.1367   -4.2553    5.4756 H   0  0  0  0  0  0
   13.5583   -5.3140    5.3800 H   0  0  0  0  0  0
  1  2  1  0  0  0
  1 28  1  0  0  0
  1 29  1  0  0  0
  1 30  1  0  0  0
  2  3  1  0  0  0
  2 31  1  0  0  0
  2 32  1  0  0  0
  3  4  1  0  0  0
  3 33  1  0  0  0
  3 34  1  0  0  0
  4  5  1  0  0  0
  4 35  1  0  0  0
  4 36  1  0  0  0
  5  6  1  0  0  0
  5 37  1  0  0  0
  5 38  1  0  0  0
  6  7  1  0  0  0
  6 39  1  0  0  0
  6 40  1  0  0  0
  7  8  1  0  0  0
  7 41  1  0  0  0
  7 42  1  0  0  0
  8  9  1  0  0  0
  8 43  1  0  0  0
  8 44  1  0  0  0
  9 10  1  0  0  0
  9 45  1  0  0  0
  9 46  1  0  0  0
 10 11  1  0  0  0
 10 47  1  0  0  0
 10 48  1  0  0  0
 11 12  1  0  0  0
 11 49  1  0  0  0
 11 50  1  0  0  0
 12 13  1  0  0  0
 12 51  1  0  0  0
 12 52  1  0  0  0
 13 14  1  0  0  0
 13 53  1  0  0  0
 13 54  1  0  0  0
 14 15  1  0  0  0
 14 55  1  0  0  0
 14 56  1  0  0  0
 15 16  1  0  0  0
 15 57  1  0  0  0
 15 58  1  0  0  0
 16 17  1  0  0  0
 16 59  1  0  0  0
 16 60  1  0  0  0
 17 18  1  0  0  0
 17 61  1  0  0  0
 17 62  1  0  0  0
 18 19  1  0  0  0
 18 63  1  0  0  0
 18 64  1  0  0  0
 19 20  1  0  0  0
 19 65  1  0  0  0
 19 66  1  0  0  0
 20 21  1  0  0  0
 20 67  1  0  0  0
 20 68  1  0  0  0
 21 22  1  0  0  0
 21 69  1  0  0  0
 21 70  1  0  0  0
 22 23  1  0  0  0
 22 71  1  0  0  0
 22 72  1  0  0  0
 23 24  1  0  0  0
 23 73  1  0  0  0
 23 74  1  0  0  0
 24 25  2  0  0  0
 24 26  1  0  0  0
 26 27  1  0  0  0
 27 75  1  0  0  0
 27 76  1  0  0  0
 27 77  1  0  0  0
M  END
>  <i_m_Spin_multiplicity> (1)
1

>  <s_j_Task> (1)
Single Point

>  <s_j_QM_Method> (1)
DFT(b3lyp-d3)

>  <s_j_QM_Basis> (1)
cc-pvtz(-f)

>  <i_j_Number_of_canonical_orbitals> (1)
1063

>  <i_j_Geometry_convergence_category> (1)
3

>  <r_j_Gas_Phase_Energy> (1)
-1133.73854096905

>  <r_j_Final_Energy> (1)
-1133.73854096905

>  <r_j_HOMO> (1)
-0.29075191961192

>  <r_j_LUMO> (1)
-0.0392563356231253

>  <r_j_Polarizability> (1)
316.814292636777

>  <r_j_QM_Dipole_(debye)> (1)
1.97264737603336

>  <r_j_QM_Dipole_X_(debye)> (1)
-1.44794092816106

>  <r_j_QM_Dipole_Y_(debye)> (1)
-1.33597979717823

>  <r_j_QM_Dipole_Z_(debye)> (1)
0.0998134272481861

>  <r_j_Lowest_Frequency_(cm-1)> (1)
16.4081532544613

>  <r_j_Highest_Frequency_(cm-1)> (1)
3107.53696365381

>  <r_j_2nd_Lowest_Frequency_(cm-1)> (1)
25.9571485370711

>  <i_j_Num_Negative_Frequencies> (1)
0

>  <r_j_Zero_Point_Energy_(kcal/mol)> (1)
449.807909615676

>  <r_j_Entropy_(cal/mol/K)_298.15K_1.00E+00atm> (1)
198.899661017763

>  <r_j_Enthalpy_(kcal/mol)_298.15K_1.00E+00atm> (1)
20.8873765685289

>  <r_j_Free_Energy_(kcal/mol)_298.15K_1.00E+00atm> (1)
-38.4145573639172

>  <r_j_Internal_Energy_(kcal/mol)_298.15K_1.00E+00atm> (1)
20.2948909797016

>  <r_j_Heat_Capacity_(cal/mol/K)_298.15K_1.00E+00atm> (1)
123.232760493435

>  <r_j_ln(Q)_298.15K_1.00E+00atm> (1)
64.8362729631151

>  <r_j_Total_Internal_Energy_(au)_298.15K_1.00E+00atm> (1)
-1132.98938446533

>  <r_j_Total_Enthalpy_(au)_298.15K_1.00E+00atm> (1)
-1132.98844027944

>  <r_j_Total_Free_Energy_(au)_298.15K_1.00E+00atm> (1)
-1133.08294392722

>  <r_lp_tautomer_probability> (1)
1

>  <r_epik_Ionization_Penalty> (1)
  0.0000

>  <r_epik_Ionization_Penalty_Charging> (1)
  0.0000

>  <r_epik_Ionization_Penalty_Neutral> (1)
  0.0000

>  <r_epik_State_Penalty> (1)
  0.0000

>  <r_epik_Charging_Adjusted_Penalty> (1)
0

>  <i_epik_Tot_Q> (1)
0

>  <i_epik_Tot_abs_Q> (1)
0

>  <s_lp_Force_Field> (1)
S-OPLS

>  <r_lp_Energy> (1)
13.472275

>  <b_lp_Chiralities_Consistent> (1)
1

>  <s_epik_Chemistry_Notes> (1)
This compound has an ester and may undergo hydrolysis at high or low pH.

$$$$
