756_Glycolaldehyde
                    3D
 Schrodinger Suite 2021-3.
  8  7  0  0  1  0            999 V2000
   -0.0161    0.0382    0.1385 C   0  0  0  0  0  0
    1.4986    0.0102    0.0197 C   0  0  0  0  0  0
    2.1795   -0.8794    0.4754 O   0  0  0  0  0  0
   -0.4806    1.2156   -0.4952 O   0  0  0  0  0  0
   -0.4040   -0.8845   -0.3238 H   0  0  0  0  0  0
   -0.2677   -0.0053    1.2109 H   0  0  0  0  0  0
    1.9300    0.8798   -0.5241 H   0  0  0  0  0  0
   -1.4424    1.2442   -0.4256 H   0  0  0  0  0  0
  1  2  1  0  0  0
  1  4  1  0  0  0
  1  5  1  0  0  0
  1  6  1  0  0  0
  2  3  2  0  0  0
  2  7  1  0  0  0
  4  8  1  0  0  0
M  END
>  <i_m_Spin_multiplicity> (1)
1

>  <s_j_Task> (1)
Single Point

>  <s_j_QM_Method> (1)
DFT(b3lyp-d3)

>  <s_j_QM_Basis> (1)
cc-pvtz(-f)

>  <i_j_Number_of_canonical_orbitals> (1)
128

>  <i_j_Geometry_convergence_category> (1)
0

>  <r_j_Gas_Phase_Energy> (1)
-229.127697111735

>  <r_j_Final_Energy> (1)
-229.127697111735

>  <r_j_HOMO> (1)
-0.271205424208694

>  <r_j_LUMO> (1)
-0.0452105020586892

>  <r_j_Polarizability> (1)
31.0721257511251

>  <r_j_QM_Dipole_(debye)> (1)
2.99389163661155

>  <r_j_QM_Dipole_X_(debye)> (1)
-2.89577697135422

>  <r_j_QM_Dipole_Y_(debye)> (1)
0.73907343453235

>  <r_j_QM_Dipole_Z_(debye)> (1)
-0.177857589986285

>  <r_j_Lowest_Frequency_(cm-1)> (1)
142.671897723334

>  <r_j_Highest_Frequency_(cm-1)> (1)
3787.9633629125

>  <r_j_2nd_Lowest_Frequency_(cm-1)> (1)
321.595357514428

>  <i_j_Num_Negative_Frequencies> (1)
0

>  <r_j_Zero_Point_Energy_(kcal/mol)> (1)
37.8001093883649

>  <r_j_Entropy_(cal/mol/K)_298.15K_1.00E+00atm> (1)
68.2881658437382

>  <r_j_Enthalpy_(kcal/mol)_298.15K_1.00E+00atm> (1)
3.52595854646229

>  <r_j_Free_Energy_(kcal/mol)_298.15K_1.00E+00atm> (1)
-16.8341580998482

>  <r_j_Internal_Energy_(kcal/mol)_298.15K_1.00E+00atm> (1)
2.93347295763502

>  <r_j_Heat_Capacity_(cal/mol/K)_298.15K_1.00E+00atm> (1)
14.5789486721547

>  <r_j_ln(Q)_298.15K_1.00E+00atm> (1)
28.4127722552183

>  <r_j_Total_Internal_Energy_(au)_298.15K_1.00E+00atm> (1)
-229.062784015928

>  <r_j_Total_Enthalpy_(au)_298.15K_1.00E+00atm> (1)
-229.061839830036

>  <r_j_Total_Free_Energy_(au)_298.15K_1.00E+00atm> (1)
-229.094285741404

>  <r_epik_Ionization_Penalty> (1)
  0.0004

>  <r_epik_Ionization_Penalty_Charging> (1)
  0.0000

>  <r_epik_Ionization_Penalty_Neutral> (1)
  0.0004

>  <r_epik_State_Penalty> (1)
  0.0002

>  <r_epik_Charging_Adjusted_Penalty> (1)
0.000228001

>  <i_epik_Tot_Q> (1)
0

>  <i_epik_Tot_abs_Q> (1)
0

>  <s_lp_Force_Field> (1)
S-OPLS

>  <r_lp_Energy> (1)
2.24788

>  <b_lp_Chiralities_Consistent> (1)
1

$$$$
