7570_Methylene(b)4-phenylisocyanate
                    3D
 Schrodinger Suite 2021-3.
 29 30  0  0  1  0            999 V2000
   -0.8421    0.4319    0.9687 C   0  0  0  0  0  0
   -2.2323    0.3894    0.9379 C   0  0  0  0  0  0
   -2.8885   -0.4164    0.0003 C   0  0  0  0  0  0
   -2.1343   -1.1816   -0.8987 C   0  0  0  0  0  0
   -0.7433   -1.1286   -0.8541 C   0  0  0  0  0  0
   -0.0726   -0.3206    0.0722 C   0  0  0  0  0  0
    1.4469   -0.2328    0.0697 C   0  0  0  0  0  0
    2.0716   -0.1351    1.4473 C   0  0  0  0  0  0
    2.7480    1.0157    1.8619 C   0  0  0  0  0  0
    3.3136    1.1065    3.1332 C   0  0  0  0  0  0
    3.2077    0.0325    4.0199 C   0  0  0  0  0  0
    2.5274   -1.1292    3.6212 C   0  0  0  0  0  0
    1.9681   -1.2023    2.3516 C   0  0  0  0  0  0
    3.7871    0.1535    5.2861 N   0  0  0  0  0  0
    3.9384   -0.4772    6.3067 C   0  0  0  0  0  0
    4.1558   -0.9788    7.3510 O   0  0  0  0  0  0
   -4.2857   -0.4301    0.0010 N   0  0  0  0  0  0
   -5.2252   -0.9160   -0.5834 C   0  0  0  0  0  0
   -6.2247   -1.3166   -1.0638 O   0  0  0  0  0  0
   -0.3451    1.0544    1.7067 H   0  0  0  0  0  0
   -2.8232    0.9743    1.6346 H   0  0  0  0  0  0
   -2.6399   -1.8133   -1.6230 H   0  0  0  0  0  0
   -0.1700   -1.7274   -1.5573 H   0  0  0  0  0  0
    1.8504   -1.1084   -0.4536 H   0  0  0  0  0  0
    1.7527    0.6383   -0.5242 H   0  0  0  0  0  0
    2.8381    1.8580    1.1810 H   0  0  0  0  0  0
    3.8388    2.0020    3.4476 H   0  0  0  0  0  0
    2.4430   -1.9641    4.3107 H   0  0  0  0  0  0
    1.4339   -2.1011    2.0550 H   0  0  0  0  0  0
  1  6  1  0  0  0
  1  2  2  0  0  0
  1 20  1  0  0  0
  2  3  1  0  0  0
  2 21  1  0  0  0
  3  4  2  0  0  0
  3 17  1  0  0  0
  4  5  1  0  0  0
  4 22  1  0  0  0
  5  6  2  0  0  0
  5 23  1  0  0  0
  6  7  1  0  0  0
  7  8  1  0  0  0
  7 24  1  0  0  0
  7 25  1  0  0  0
  8 13  1  0  0  0
  8  9  2  0  0  0
  9 10  1  0  0  0
  9 26  1  0  0  0
 10 11  2  0  0  0
 10 27  1  0  0  0
 11 12  1  0  0  0
 11 14  1  0  0  0
 12 13  2  0  0  0
 12 28  1  0  0  0
 13 29  1  0  0  0
 14 15  2  0  0  0
 15 16  2  0  0  0
 17 18  2  0  0  0
 18 19  2  0  0  0
M  END
>  <i_m_Spin_multiplicity> (1)
1

>  <s_j_Task> (1)
Single Point

>  <s_j_QM_Method> (1)
DFT(b3lyp-d3)

>  <s_j_QM_Basis> (1)
cc-pvtz(-f)

>  <i_j_Number_of_canonical_orbitals> (1)
515

>  <i_j_Geometry_convergence_category> (1)
3

>  <r_j_Gas_Phase_Energy> (1)
-837.871425561786

>  <r_j_Final_Energy> (1)
-837.871425561786

>  <r_j_HOMO> (1)
-0.246683840481848

>  <r_j_LUMO> (1)
-0.0592077250775854

>  <r_j_Polarizability> (1)
198.638916344098

>  <r_j_QM_Dipole_(debye)> (1)
2.7230179183196

>  <r_j_QM_Dipole_X_(debye)> (1)
1.73552073889137

>  <r_j_QM_Dipole_Y_(debye)> (1)
0.43767055679829

>  <r_j_QM_Dipole_Z_(debye)> (1)
-2.05213031556952

>  <r_j_Lowest_Frequency_(cm-1)> (1)
40.811809491061

>  <r_j_Highest_Frequency_(cm-1)> (1)
3155.84331970112

>  <r_j_2nd_Lowest_Frequency_(cm-1)> (1)
67.5777438338126

>  <i_j_Num_Negative_Frequencies> (1)
0

>  <r_j_Zero_Point_Energy_(kcal/mol)> (1)
135.330873745865

>  <r_j_Entropy_(cal/mol/K)_298.15K_1.00E+00atm> (1)
122.700208014812

>  <r_j_Enthalpy_(kcal/mol)_298.15K_1.00E+00atm> (1)
9.97981451622513

>  <r_j_Free_Energy_(kcal/mol)_298.15K_1.00E+00atm> (1)
-26.603252503391

>  <r_j_Internal_Energy_(kcal/mol)_298.15K_1.00E+00atm> (1)
9.38732892739786

>  <r_j_Heat_Capacity_(cal/mol/K)_298.15K_1.00E+00atm> (1)
58.8185549053083

>  <r_j_ln(Q)_298.15K_1.00E+00atm> (1)
44.9010963389804

>  <r_j_Total_Internal_Energy_(au)_298.15K_1.00E+00atm> (1)
-837.64080242446

>  <r_j_Total_Enthalpy_(au)_298.15K_1.00E+00atm> (1)
-837.639858238568

>  <r_j_Total_Free_Energy_(au)_298.15K_1.00E+00atm> (1)
-837.698157067141

>  <r_lp_tautomer_probability> (1)
1

>  <r_epik_Ionization_Penalty> (1)
  0.0000

>  <r_epik_Ionization_Penalty_Charging> (1)
  0.0000

>  <r_epik_Ionization_Penalty_Neutral> (1)
  0.0000

>  <r_epik_State_Penalty> (1)
  0.0000

>  <r_epik_Charging_Adjusted_Penalty> (1)
0

>  <i_epik_Tot_Q> (1)
0

>  <i_epik_Tot_abs_Q> (1)
0

>  <s_lp_Force_Field> (1)
S-OPLS

>  <r_lp_Energy> (1)
14.4199

>  <b_lp_Chiralities_Consistent> (1)
1

>  <s_epik_Chemistry_Notes> (1)
This compound has an imine and may undergo hydrolysis.

$$$$
