7577_4,4-Methylene dianiline
                    3D
 Schrodinger Suite 2021-3.
 29 30  0  0  1  0            999 V2000
   -0.8047    0.9575    0.5786 C   0  0  0  0  0  0
   -2.1934    0.9248    0.5647 C   0  0  0  0  0  0
   -2.8779   -0.1420   -0.0429 C   0  0  0  0  0  0
   -2.1214   -1.1634   -0.6344 C   0  0  0  0  0  0
   -0.7280   -1.1143   -0.6165 C   0  0  0  0  0  0
   -0.0411   -0.0574   -0.0140 C   0  0  0  0  0  0
    1.4764   -0.0087    0.0314 C   0  0  0  0  0  0
    2.0287    0.0480    1.4448 C   0  0  0  0  0  0
    2.8067    1.1189    1.8913 C   0  0  0  0  0  0
    3.2887    1.1762    3.1985 C   0  0  0  0  0  0
    3.0038    0.1486    4.1087 C   0  0  0  0  0  0
    2.2213   -0.9322    3.6661 C   0  0  0  0  0  0
    1.7441   -0.9726    2.3623 C   0  0  0  0  0  0
    3.5290    0.1682    5.4068 N   0  0  0  0  0  0
   -4.2772   -0.1539   -0.1029 N   0  0  0  0  0  0
   -0.2964    1.7806    1.0745 H   0  0  0  0  0  0
   -2.7607    1.7287    1.0283 H   0  0  0  0  0  0
   -2.6286   -1.9986   -1.1119 H   0  0  0  0  0  0
   -0.1657   -1.9219   -1.0798 H   0  0  0  0  0  0
    1.8765   -0.8880   -0.4895 H   0  0  0  0  0  0
    1.8375    0.8643   -0.5274 H   0  0  0  0  0  0
    3.0404    1.9314    1.2069 H   0  0  0  0  0  0
    3.8930    2.0225    3.5171 H   0  0  0  0  0  0
    1.9896   -1.7413    4.3551 H   0  0  0  0  0  0
    1.1220   -1.8072    2.0486 H   0  0  0  0  0  0
    2.9952   -0.3606    6.0837 H   0  0  0  0  0  0
    3.7487    1.0914    5.7567 H   0  0  0  0  0  0
   -4.6847   -1.0740   -0.2040 H   0  0  0  0  0  0
   -4.7331    0.3673    0.6342 H   0  0  0  0  0  0
  1  6  1  0  0  0
  1  2  2  0  0  0
  1 16  1  0  0  0
  2  3  1  0  0  0
  2 17  1  0  0  0
  3  4  2  0  0  0
  3 15  1  0  0  0
  4  5  1  0  0  0
  4 18  1  0  0  0
  5  6  2  0  0  0
  5 19  1  0  0  0
  6  7  1  0  0  0
  7  8  1  0  0  0
  7 20  1  0  0  0
  7 21  1  0  0  0
  8 13  1  0  0  0
  8  9  2  0  0  0
  9 10  1  0  0  0
  9 22  1  0  0  0
 10 11  2  0  0  0
 10 23  1  0  0  0
 11 12  1  0  0  0
 11 14  1  0  0  0
 12 13  2  0  0  0
 12 24  1  0  0  0
 13 25  1  0  0  0
 14 26  1  0  0  0
 14 27  1  0  0  0
 15 28  1  0  0  0
 15 29  1  0  0  0
M  END
>  <i_m_Spin_multiplicity> (1)
1

>  <s_j_Task> (1)
Single Point

>  <s_j_QM_Method> (1)
DFT(b3lyp-d3)

>  <s_j_QM_Basis> (1)
cc-pvtz(-f)

>  <i_j_Number_of_canonical_orbitals> (1)
459

>  <i_j_Geometry_convergence_category> (1)
0

>  <r_j_Gas_Phase_Energy> (1)
-613.546796654703

>  <r_j_Final_Energy> (1)
-613.546796654703

>  <r_j_HOMO> (1)
-0.202090405643078

>  <r_j_LUMO> (1)
-0.0213650357402743

>  <r_j_Polarizability> (1)
166.046323304701

>  <r_j_QM_Dipole_(debye)> (1)
2.77005568703327

>  <r_j_QM_Dipole_X_(debye)> (1)
-1.59531768548808

>  <r_j_QM_Dipole_Y_(debye)> (1)
-0.00776697248544157

>  <r_j_QM_Dipole_Z_(debye)> (1)
2.26453299065673

>  <r_j_Lowest_Frequency_(cm-1)> (1)
52.8183730253388

>  <r_j_Highest_Frequency_(cm-1)> (1)
3602.45266861767

>  <r_j_2nd_Lowest_Frequency_(cm-1)> (1)
66.6501402034903

>  <i_j_Num_Negative_Frequencies> (1)
0

>  <r_j_Zero_Point_Energy_(kcal/mol)> (1)
152.038360388231

>  <r_j_Entropy_(cal/mol/K)_298.15K_1.00E+00atm> (1)
108.697758656739

>  <r_j_Enthalpy_(kcal/mol)_298.15K_1.00E+00atm> (1)
8.45453482460621

>  <r_j_Free_Energy_(kcal/mol)_298.15K_1.00E+00atm> (1)
-23.9537019189007

>  <r_j_Internal_Energy_(kcal/mol)_298.15K_1.00E+00atm> (1)
7.86204923577894

>  <r_j_Heat_Capacity_(cal/mol/K)_298.15K_1.00E+00atm> (1)
52.1925120678608

>  <r_j_ln(Q)_298.15K_1.00E+00atm> (1)
40.4291722374429

>  <r_j_Total_Internal_Energy_(au)_298.15K_1.00E+00atm> (1)
-613.291979130397

>  <r_j_Total_Enthalpy_(au)_298.15K_1.00E+00atm> (1)
-613.291034944505

>  <r_j_Total_Free_Energy_(au)_298.15K_1.00E+00atm> (1)
-613.342680757505

>  <r_epik_Ionization_Penalty> (1)
  0.0080

>  <r_epik_Ionization_Penalty_Charging> (1)
  0.0000

>  <r_epik_Ionization_Penalty_Neutral> (1)
  0.0080

>  <r_epik_State_Penalty> (1)
  0.0060

>  <r_epik_Charging_Adjusted_Penalty> (1)
0.00604254

>  <i_epik_Tot_Q> (1)
0

>  <i_epik_Tot_abs_Q> (1)
0

>  <s_lp_Force_Field> (1)
S-OPLS

>  <r_lp_Energy> (1)
13.376

>  <b_lp_Chiralities_Consistent> (1)
1

$$$$
