76007601_Pyrethrum
                    3D
 Schrodinger Suite 2021-3.
 55 56  0  0  1  0            999 V2000
   -1.6061   -3.5457    0.0900 C   0  0  0  0  0  0
   -2.0775   -2.4604   -0.8185 C   0  0  0  0  0  0
   -2.7695   -2.5766   -1.9707 C   0  0  0  0  0  0
   -2.9624   -1.2389   -2.5805 C   0  0  0  0  0  0
   -3.5439   -1.0176   -3.6292 O   0  0  0  0  0  0
   -2.3105   -0.1990   -1.6705 C   0  0  0  0  0  0
   -1.7990   -1.0130   -0.4728 C   0  0  0  0  0  0
   -0.3670   -0.8945   -0.2636 O   0  0  0  0  0  0
    0.0612    0.2800    0.2590 C   0  0  0  0  0  0
   -0.6855    1.1690    0.6081 O   0  0  0  0  0  0
    1.5606    0.2961    0.2937 C   0  0  0  0  0  0
    2.2958    0.4196   -1.0579 C   0  0  0  0  0  0
    2.3699    1.5272   -0.0094 C   0  0  0  0  0  0
    1.6913    2.8655   -0.2536 C   0  0  0  0  0  0
    3.6976    1.6597    0.7190 C   0  0  0  0  0  0
    1.4624    0.5287   -2.2668 C   0  0  0  0  0  0
    1.3161   -0.4015   -3.2286 C   0  0  0  0  0  0
    2.0342   -1.7229   -3.2863 C   0  0  0  0  0  0
    0.2727   -0.1026   -4.2534 C   0  0  0  0  0  0
   -0.3800    0.9245   -4.3238 O   0  0  0  0  0  0
    0.0779   -1.1506   -5.0853 O   0  0  0  0  0  0
   -1.0176   -1.0174   -6.0176 C   0  0  0  0  0  0
   -3.3260   -3.8143   -2.6111 C   0  0  0  0  0  0
   -2.4043   -4.5445   -3.5580 C   0  0  0  0  0  0
   -1.2739   -4.0699   -4.1030 C   0  0  0  0  0  0
   -0.4707   -4.8262   -5.0552 C   0  0  0  0  0  0
    0.6151   -4.3581   -5.6897 C   0  0  0  0  0  0
   -0.5232   -3.4591    0.2317 H   0  0  0  0  0  0
   -1.8292   -4.5385   -0.3045 H   0  0  0  0  0  0
   -2.0631   -3.4463    1.0831 H   0  0  0  0  0  0
   -1.4987    0.2982   -2.2066 H   0  0  0  0  0  0
   -3.0306    0.5739   -1.3919 H   0  0  0  0  0  0
   -2.2957   -0.7234    0.4603 H   0  0  0  0  0  0
    1.9757   -0.4415    0.9773 H   0  0  0  0  0  0
    3.1744   -0.2134   -1.1414 H   0  0  0  0  0  0
    2.3233    3.4901   -0.8940 H   0  0  0  0  0  0
    1.5479    3.3848    0.6989 H   0  0  0  0  0  0
    0.7076    2.7749   -0.7120 H   0  0  0  0  0  0
    4.3881    2.2869    0.1442 H   0  0  0  0  0  0
    4.1771    0.6877    0.8760 H   0  0  0  0  0  0
    3.5539    2.1275    1.6990 H   0  0  0  0  0  0
    0.8386    1.4129   -2.3631 H   0  0  0  0  0  0
    1.3352   -2.5537   -3.1457 H   0  0  0  0  0  0
    2.8032   -1.7989   -2.5158 H   0  0  0  0  0  0
    2.5084   -1.8726   -4.2611 H   0  0  0  0  0  0
   -1.0541   -1.9696   -6.5461 H   0  0  0  0  0  0
   -0.8270   -0.1914   -6.7068 H   0  0  0  0  0  0
   -1.9492   -0.8351   -5.4773 H   0  0  0  0  0  0
   -3.6641   -4.5119   -1.8346 H   0  0  0  0  0  0
   -4.2268   -3.5199   -3.1696 H   0  0  0  0  0  0
   -2.7429   -5.5417   -3.8417 H   0  0  0  0  0  0
   -0.9295   -3.0692   -3.8540 H   0  0  0  0  0  0
   -0.8036   -5.8451   -5.2563 H   0  0  0  0  0  0
    0.9709   -3.3459   -5.5309 H   0  0  0  0  0  0
    1.1653   -4.9764   -6.3920 H   0  0  0  0  0  0
  1  2  1  0  0  0
  1 28  1  0  0  0
  1 29  1  0  0  0
  1 30  1  0  0  0
  2  7  1  0  0  0
  2  3  2  0  0  0
  3  4  1  0  0  0
  3 23  1  0  0  0
  4  5  2  0  0  0
  4  6  1  0  0  0
  6  7  1  0  0  0
  6 31  1  0  0  0
  6 32  1  0  0  0
  7  8  1  0  0  0
  7 33  1  0  0  0
  8  9  1  0  0  0
  9 10  2  0  0  0
  9 11  1  0  0  0
 11 13  1  0  0  0
 11 12  1  0  0  0
 11 34  1  0  0  0
 12 13  1  0  0  0
 12 16  1  0  0  0
 12 35  1  0  0  0
 13 14  1  0  0  0
 13 15  1  0  0  0
 14 36  1  0  0  0
 14 37  1  0  0  0
 14 38  1  0  0  0
 15 39  1  0  0  0
 15 40  1  0  0  0
 15 41  1  0  0  0
 16 17  2  0  0  0
 16 42  1  0  0  0
 17 18  1  0  0  0
 17 19  1  0  0  0
 18 43  1  0  0  0
 18 44  1  0  0  0
 18 45  1  0  0  0
 19 20  2  0  0  0
 19 21  1  0  0  0
 21 22  1  0  0  0
 22 46  1  0  0  0
 22 47  1  0  0  0
 22 48  1  0  0  0
 23 24  1  0  0  0
 23 49  1  0  0  0
 23 50  1  0  0  0
 24 25  2  0  0  0
 24 51  1  0  0  0
 25 26  1  0  0  0
 25 52  1  0  0  0
 26 27  2  0  0  0
 26 53  1  0  0  0
 27 54  1  0  0  0
 27 55  1  0  0  0
M  END
>  <i_m_Spin_multiplicity> (1)
1

>  <s_j_Task> (1)
Single Point

>  <s_j_QM_Method> (1)
DFT(b3lyp-d3)

>  <s_j_QM_Basis> (1)
cc-pvtz(-f)

>  <i_j_Number_of_canonical_orbitals> (1)
861

>  <i_j_Geometry_convergence_category> (1)
2

>  <r_j_Gas_Phase_Energy> (1)
-1231.74294772047

>  <r_j_Final_Energy> (1)
-1231.74294772047

>  <r_j_HOMO> (1)
-0.229176340286202

>  <r_j_LUMO> (1)
-0.0591475336705735

>  <r_j_Polarizability> (1)
272.023065872478

>  <r_j_QM_Dipole_(debye)> (1)
5.27437977087665

>  <r_j_QM_Dipole_X_(debye)> (1)
2.7210816562772

>  <r_j_QM_Dipole_Y_(debye)> (1)
-3.40870461027524

>  <r_j_QM_Dipole_Z_(debye)> (1)
2.96572579096465

>  <r_j_Lowest_Frequency_(cm-1)> (1)
52.8394761292571

>  <r_j_Highest_Frequency_(cm-1)> (1)
3199.06491860027

>  <r_j_2nd_Lowest_Frequency_(cm-1)> (1)
55.176372772032

>  <i_j_Num_Negative_Frequencies> (1)
0

>  <r_j_Zero_Point_Energy_(kcal/mol)> (1)
287.489162546695

>  <r_j_Entropy_(cal/mol/K)_298.15K_1.00E+00atm> (1)
170.939548840721

>  <r_j_Enthalpy_(kcal/mol)_298.15K_1.00E+00atm> (1)
17.6160336728013

>  <r_j_Free_Energy_(kcal/mol)_298.15K_1.00E+00atm> (1)
-33.3495928140597

>  <r_j_Internal_Energy_(kcal/mol)_298.15K_1.00E+00atm> (1)
17.023548083974

>  <r_j_Heat_Capacity_(cal/mol/K)_298.15K_1.00E+00atm> (1)
106.106927457134

>  <r_j_ln(Q)_298.15K_1.00E+00atm> (1)
56.2876016614507

>  <r_j_Total_Internal_Energy_(au)_298.15K_1.00E+00atm> (1)
-1231.25767582388

>  <r_j_Total_Enthalpy_(au)_298.15K_1.00E+00atm> (1)
-1231.25673163799

>  <r_j_Total_Free_Energy_(au)_298.15K_1.00E+00atm> (1)
-1231.33795053416

>  <r_lp_tautomer_probability> (1)
0.499977396165832

>  <r_epik_Ionization_Penalty> (1)
  0.0000

>  <r_epik_Ionization_Penalty_Charging> (1)
  0.0000

>  <r_epik_Ionization_Penalty_Neutral> (1)
  0.0000

>  <r_epik_State_Penalty> (1)
  0.4107

>  <r_epik_Charging_Adjusted_Penalty> (1)
0.410679838952604

>  <i_epik_Tot_Q> (1)
0

>  <i_epik_Tot_abs_Q> (1)
0

>  <s_lp_Force_Field> (1)
S-OPLS

>  <r_lp_Energy> (1)
11.626379

>  <b_lp_Chiralities_Consistent> (1)
1

>  <s_epik_Chemistry_Notes> (1)
This compound has an ester and may undergo hydrolysis at high or low pH.

$$$$
