7602_1,3,5-triethylbenzene
                    3D
 Schrodinger Suite 2021-3.
 30 30  0  0  1  0            999 V2000
   -0.5783    1.4484   -0.0140 C   0  0  0  0  0  0
   -0.0337    0.0092    0.0015 C   0  0  0  0  0  0
    1.4798   -0.0292    0.0026 C   0  0  0  0  0  0
    2.1946   -0.0432    1.2051 C   0  0  0  0  0  0
    3.5933   -0.0287    1.2228 C   0  0  0  0  0  0
    4.2770    0.0045    0.0029 C   0  0  0  0  0  0
    3.5929    0.0226   -1.2171 C   0  0  0  0  0  0
    2.1944    0.0041   -1.1995 C   0  0  0  0  0  0
    4.3494   -0.0067   -2.5282 C   0  0  0  0  0  0
    4.6240   -1.4428   -3.0083 C   0  0  0  0  0  0
    4.3508    0.0098    2.5333 C   0  0  0  0  0  0
    4.6342    1.4491    2.9986 C   0  0  0  0  0  0
   -1.6735    1.4587   -0.0152 H   0  0  0  0  0  0
   -0.2300    1.9845   -0.9030 H   0  0  0  0  0  0
   -0.2314    2.0036    0.8637 H   0  0  0  0  0  0
   -0.4169   -0.5147    0.8854 H   0  0  0  0  0  0
   -0.4162   -0.5319   -0.8724 H   0  0  0  0  0  0
    1.6504   -0.0685    2.1476 H   0  0  0  0  0  0
    5.3657    0.0135    0.0028 H   0  0  0  0  0  0
    1.6500    0.0127   -2.1423 H   0  0  0  0  0  0
    3.7783    0.5294   -3.2958 H   0  0  0  0  0  0
    5.3010    0.5270   -2.4174 H   0  0  0  0  0  0
    5.1713   -1.4466   -3.9571 H   0  0  0  0  0  0
    3.6861   -1.9891   -3.1516 H   0  0  0  0  0  0
    5.2165   -1.9915   -2.2689 H   0  0  0  0  0  0
    3.7776   -0.5156    3.3065 H   0  0  0  0  0  0
    5.2997   -0.5297    2.4274 H   0  0  0  0  0  0
    5.1829    1.4592    3.9465 H   0  0  0  0  0  0
    3.6998    2.0026    3.1377 H   0  0  0  0  0  0
    5.2291    1.9869    2.2531 H   0  0  0  0  0  0
  1  2  1  0  0  0
  1 13  1  0  0  0
  1 14  1  0  0  0
  1 15  1  0  0  0
  2  3  1  0  0  0
  2 16  1  0  0  0
  2 17  1  0  0  0
  3  8  1  0  0  0
  3  4  2  0  0  0
  4  5  1  0  0  0
  4 18  1  0  0  0
  5  6  2  0  0  0
  5 11  1  0  0  0
  6  7  1  0  0  0
  6 19  1  0  0  0
  7  8  2  0  0  0
  7  9  1  0  0  0
  8 20  1  0  0  0
  9 10  1  0  0  0
  9 21  1  0  0  0
  9 22  1  0  0  0
 10 23  1  0  0  0
 10 24  1  0  0  0
 10 25  1  0  0  0
 11 12  1  0  0  0
 11 26  1  0  0  0
 11 27  1  0  0  0
 12 28  1  0  0  0
 12 29  1  0  0  0
 12 30  1  0  0  0
M  END
>  <i_m_Spin_multiplicity> (1)
1

>  <s_j_Task> (1)
Single Point

>  <s_j_QM_Method> (1)
DFT(b3lyp-d3)

>  <s_j_QM_Basis> (1)
cc-pvtz(-f)

>  <i_j_Number_of_canonical_orbitals> (1)
430

>  <i_j_Geometry_convergence_category> (1)
3

>  <r_j_Gas_Phase_Energy> (1)
-468.316853319806

>  <r_j_Final_Energy> (1)
-468.316853319806

>  <r_j_HOMO> (1)
-0.236253281588951

>  <r_j_LUMO> (1)
-0.00723603137087602

>  <r_j_Polarizability> (1)
143.024525136205

>  <r_j_QM_Dipole_(debye)> (1)
0.0364430491423155

>  <r_j_QM_Dipole_X_(debye)> (1)
0.000488013137767114

>  <r_j_QM_Dipole_Y_(debye)> (1)
0.036427618192147

>  <r_j_QM_Dipole_Z_(debye)> (1)
-0.000941438693569122

>  <r_j_Lowest_Frequency_(cm-1)> (1)
70.860776596217

>  <r_j_Highest_Frequency_(cm-1)> (1)
3103.24926978386

>  <r_j_2nd_Lowest_Frequency_(cm-1)> (1)
73.4661979051209

>  <i_j_Num_Negative_Frequencies> (1)
0

>  <r_j_Zero_Point_Energy_(kcal/mol)> (1)
168.499372024005

>  <r_j_Entropy_(cal/mol/K)_298.15K_1.00E+00atm> (1)
108.291767394902

>  <r_j_Enthalpy_(kcal/mol)_298.15K_1.00E+00atm> (1)
8.4129855873703

>  <r_j_Free_Energy_(kcal/mol)_298.15K_1.00E+00atm> (1)
-23.8742048614198

>  <r_j_Internal_Energy_(kcal/mol)_298.15K_1.00E+00atm> (1)
7.82049999854302

>  <r_j_Heat_Capacity_(cal/mol/K)_298.15K_1.00E+00atm> (1)
48.5145860814368

>  <r_j_ln(Q)_298.15K_1.00E+00atm> (1)
40.2949967250254

>  <r_j_Total_Internal_Energy_(au)_298.15K_1.00E+00atm> (1)
-468.035869716447

>  <r_j_Total_Enthalpy_(au)_298.15K_1.00E+00atm> (1)
-468.034925530554

>  <r_j_Total_Free_Energy_(au)_298.15K_1.00E+00atm> (1)
-468.086378444004

>  <r_lp_tautomer_probability> (1)
1

>  <r_epik_Ionization_Penalty> (1)
  0.0000

>  <r_epik_Ionization_Penalty_Charging> (1)
  0.0000

>  <r_epik_Ionization_Penalty_Neutral> (1)
  0.0000

>  <r_epik_State_Penalty> (1)
  0.0000

>  <r_epik_Charging_Adjusted_Penalty> (1)
0

>  <i_epik_Tot_Q> (1)
0

>  <i_epik_Tot_abs_Q> (1)
0

>  <s_lp_Force_Field> (1)
S-OPLS

>  <r_lp_Energy> (1)
10.0444

>  <b_lp_Chiralities_Consistent> (1)
1

$$$$
