7618_Triethanolamine
                    3D
 Schrodinger Suite 2021-3.
 26 25  0  0  1  0            999 V2000
   -0.0821    0.0380   -0.0618 C   0  0  0  0  0  0
   -0.4290    1.5266   -0.0713 C   0  0  0  0  0  0
    0.5618    2.1810   -0.8555 O   0  0  0  0  0  0
    1.3981   -0.1993    0.1142 N   0  3  1  0  0  0
    1.7734   -1.6624    0.0546 C   0  0  0  0  0  0
    1.3921   -2.2822   -1.2871 C   0  0  0  0  0  0
    1.7757   -1.3327   -2.2661 O   0  0  0  0  0  0
    2.0262    0.4846    1.3074 C   0  0  0  0  0  0
    3.4522    0.9210    0.9212 C   0  0  0  0  0  0
    3.4657    1.4284   -0.4013 O   0  0  0  0  0  0
   -0.6175   -0.4897    0.7315 H   0  0  0  0  0  0
   -0.3316   -0.3956   -1.0298 H   0  0  0  0  0  0
   -1.4342    1.6227   -0.4995 H   0  0  0  0  0  0
   -0.4714    1.9370    0.9470 H   0  0  0  0  0  0
    0.2071    3.0084   -1.2053 H   0  0  0  0  0  0
    2.8561   -1.6987    0.1844 H   0  0  0  0  0  0
    1.2916   -2.1737    0.8913 H   0  0  0  0  0  0
    1.9295   -3.2355   -1.3778 H   0  0  0  0  0  0
    0.3164   -2.5064   -1.3277 H   0  0  0  0  0  0
    1.7127   -1.7157   -3.1503 H   0  0  0  0  0  0
    1.4246    1.3608    1.5409 H   0  0  0  0  0  0
    2.0028   -0.1925    2.1639 H   0  0  0  0  0  0
    3.8108    1.6424    1.6658 H   0  0  0  0  0  0
    4.1435    0.0741    0.9264 H   0  0  0  0  0  0
    2.9534    2.2509   -0.4385 H   0  0  0  0  0  0
    1.8606    0.2467   -0.7043 H   0  0  0  0  0  0
  1  2  1  0  0  0
  1  4  1  0  0  0
  1 11  1  0  0  0
  1 12  1  0  0  0
  2  3  1  0  0  0
  2 13  1  0  0  0
  2 14  1  0  0  0
  3 15  1  0  0  0
  4  5  1  0  0  0
  4  8  1  0  0  0
  4 26  1  0  0  0
  5  6  1  0  0  0
  5 16  1  0  0  0
  5 17  1  0  0  0
  6  7  1  0  0  0
  6 18  1  0  0  0
  6 19  1  0  0  0
  7 20  1  0  0  0
  8  9  1  0  0  0
  8 21  1  0  0  0
  8 22  1  0  0  0
  9 10  1  0  0  0
  9 23  1  0  0  0
  9 24  1  0  0  0
 10 25  1  0  0  0
M  END
>  <i_m_Spin_multiplicity> (1)
1

>  <s_j_Task> (1)
Single Point

>  <s_j_QM_Method> (1)
DFT(b3lyp-d3)

>  <s_j_QM_Basis> (1)
cc-pvtz(-f)

>  <i_j_Number_of_canonical_orbitals> (1)
374

>  <i_j_Geometry_convergence_category> (1)
3

>  <r_j_Gas_Phase_Energy> (1)
-518.661191461743

>  <r_j_Final_Energy> (1)
-518.661191461743

>  <r_j_HOMO> (1)
-0.430144340507968

>  <r_j_LUMO> (1)
-0.126540620959423

>  <r_j_Polarizability> (1)
88.3902837088993

>  <r_j_QM_Dipole_(debye)> (1)
3.73869206406705

>  <r_j_QM_Dipole_X_(debye)> (1)
-3.07026092850717

>  <r_j_QM_Dipole_Y_(debye)> (1)
-1.05373851681497

>  <r_j_QM_Dipole_Z_(debye)> (1)
1.8549801397807

>  <r_j_Lowest_Frequency_(cm-1)> (1)
68.6068225166989

>  <r_j_Highest_Frequency_(cm-1)> (1)
3783.76845840162

>  <r_j_2nd_Lowest_Frequency_(cm-1)> (1)
76.384851422057

>  <i_j_Num_Negative_Frequencies> (1)
0

>  <r_j_Zero_Point_Energy_(kcal/mol)> (1)
148.619302577451

>  <r_j_Entropy_(cal/mol/K)_298.15K_1.00E+00atm> (1)
103.03164525815

>  <r_j_Enthalpy_(kcal/mol)_298.15K_1.00E+00atm> (1)
7.80276885583907

>  <r_j_Free_Energy_(kcal/mol)_298.15K_1.00E+00atm> (1)
-22.9161161778783

>  <r_j_Internal_Energy_(kcal/mol)_298.15K_1.00E+00atm> (1)
7.2102832670118

>  <r_j_Heat_Capacity_(cal/mol/K)_298.15K_1.00E+00atm> (1)
43.3000773009879

>  <r_j_ln(Q)_298.15K_1.00E+00atm> (1)
38.6779300796782

>  <r_j_Total_Internal_Energy_(au)_298.15K_1.00E+00atm> (1)
-518.412861208107

>  <r_j_Total_Enthalpy_(au)_298.15K_1.00E+00atm> (1)
-518.411917022215

>  <r_j_Total_Free_Energy_(au)_298.15K_1.00E+00atm> (1)
-518.460870681884

>  <r_epik_Ionization_Penalty> (1)
  0.0800

>  <r_epik_Ionization_Penalty_Charging> (1)
  0.0800

>  <r_epik_Ionization_Penalty_Neutral> (1)
  0.0000

>  <r_epik_State_Penalty> (1)
  0.0708

>  <r_epik_Charging_Adjusted_Penalty> (1)
0.150803206321326

>  <i_epik_Tot_Q> (1)
1

>  <i_epik_Tot_abs_Q> (1)
1

>  <s_lp_Force_Field> (1)
S-OPLS

>  <r_lp_Energy> (1)
10.750445

>  <b_lp_Chiralities_Consistent> (1)
1

$$$$
