76262_Triethoxyoctylsilane
                    3D
 Schrodinger Suite 2021-3.
 50 49  0  0  1  0            999 V2000
   -1.6468    7.4264   -1.4092 C   0  0  0  0  0  0
   -1.1801    5.9682   -1.4528 C   0  0  0  0  0  0
   -2.0349    5.0966   -2.3840 C   0  0  0  0  0  0
   -1.5482    3.6451   -2.5159 C   0  0  0  0  0  0
   -1.6622    2.8193   -1.2285 C   0  0  0  0  0  0
   -1.1272    1.3917   -1.3773 C   0  0  0  0  0  0
   -1.2030    0.5847   -0.0732 C   0  0  0  0  0  0
   -0.4469   -0.7579   -0.1260 C   0  0  0  0  0  0
    1.4115   -0.5998   -0.2799 Si  0  0  0  0  0  0
    1.9971    0.7002    0.5758 O   0  0  0  0  0  0
    2.0740    2.0408    0.0930 C   0  0  0  0  0  0
    3.2584    2.7376    0.7429 C   0  0  0  0  0  0
    2.2037   -1.9223    0.3153 O   0  0  0  0  0  0
    2.5958   -2.0957    1.6789 C   0  0  0  0  0  0
    3.6567   -3.1821    1.7467 C   0  0  0  0  0  0
    1.7953   -0.4475   -1.8799 O   0  0  0  0  0  0
    3.1536   -0.4368   -2.3338 C   0  0  0  0  0  0
    3.1947    0.1483   -3.7355 C   0  0  0  0  0  0
   -1.0237    8.0292   -0.7402 H   0  0  0  0  0  0
   -2.6817    7.4975   -1.0549 H   0  0  0  0  0  0
   -1.6078    7.8836   -2.4047 H   0  0  0  0  0  0
   -0.1330    5.9255   -1.7839 H   0  0  0  0  0  0
   -1.1947    5.5554   -0.4366 H   0  0  0  0  0  0
   -3.0761    5.1021   -2.0301 H   0  0  0  0  0  0
   -2.0515    5.5599   -3.3800 H   0  0  0  0  0  0
   -2.1176    3.1437   -3.3100 H   0  0  0  0  0  0
   -0.5003    3.6460   -2.8503 H   0  0  0  0  0  0
   -1.1096    3.3158   -0.4196 H   0  0  0  0  0  0
   -2.7123    2.7924   -0.9034 H   0  0  0  0  0  0
   -1.6806    0.8626   -2.1655 H   0  0  0  0  0  0
   -0.0892    1.4333   -1.7311 H   0  0  0  0  0  0
   -0.7965    1.1882    0.7494 H   0  0  0  0  0  0
   -2.2582    0.4103    0.1767 H   0  0  0  0  0  0
   -0.6430   -1.3318    0.7895 H   0  0  0  0  0  0
   -0.8128   -1.3763   -0.9557 H   0  0  0  0  0  0
    2.1794    2.0488   -1.0005 H   0  0  0  0  0  0
    1.1419    2.5705    0.3328 H   0  0  0  0  0  0
    3.3245    3.7783    0.4075 H   0  0  0  0  0  0
    4.1912    2.2270    0.4843 H   0  0  0  0  0  0
    3.1544    2.7280    1.8319 H   0  0  0  0  0  0
    2.9817   -1.1504    2.0805 H   0  0  0  0  0  0
    1.7198   -2.3807    2.2805 H   0  0  0  0  0  0
    3.9684   -3.3535    2.7826 H   0  0  0  0  0  0
    4.5341   -2.8913    1.1612 H   0  0  0  0  0  0
    3.2689   -4.1202    1.3384 H   0  0  0  0  0  0
    3.7801    0.1579   -1.6529 H   0  0  0  0  0  0
    3.5462   -1.4615   -2.3252 H   0  0  0  0  0  0
    4.2192    0.1544   -4.1224 H   0  0  0  0  0  0
    2.8168    1.1755   -3.7326 H   0  0  0  0  0  0
    2.5694   -0.4422   -4.4115 H   0  0  0  0  0  0
  1  2  1  0  0  0
  1 19  1  0  0  0
  1 20  1  0  0  0
  1 21  1  0  0  0
  2  3  1  0  0  0
  2 22  1  0  0  0
  2 23  1  0  0  0
  3  4  1  0  0  0
  3 24  1  0  0  0
  3 25  1  0  0  0
  4  5  1  0  0  0
  4 26  1  0  0  0
  4 27  1  0  0  0
  5  6  1  0  0  0
  5 28  1  0  0  0
  5 29  1  0  0  0
  6  7  1  0  0  0
  6 30  1  0  0  0
  6 31  1  0  0  0
  7  8  1  0  0  0
  7 32  1  0  0  0
  7 33  1  0  0  0
  8  9  1  0  0  0
  8 34  1  0  0  0
  8 35  1  0  0  0
  9 10  1  0  0  0
  9 13  1  0  0  0
  9 16  1  0  0  0
 10 11  1  0  0  0
 11 12  1  0  0  0
 11 36  1  0  0  0
 11 37  1  0  0  0
 12 38  1  0  0  0
 12 39  1  0  0  0
 12 40  1  0  0  0
 13 14  1  0  0  0
 14 15  1  0  0  0
 14 41  1  0  0  0
 14 42  1  0  0  0
 15 43  1  0  0  0
 15 44  1  0  0  0
 15 45  1  0  0  0
 16 17  1  0  0  0
 17 18  1  0  0  0
 17 46  1  0  0  0
 17 47  1  0  0  0
 18 48  1  0  0  0
 18 49  1  0  0  0
 18 50  1  0  0  0
M  END
>  <i_m_Spin_multiplicity> (1)
1

>  <s_j_Task> (1)
Single Point

>  <s_j_QM_Method> (1)
DFT(b3lyp-d3)

>  <s_j_QM_Basis> (1)
cc-pvtz(-f)

>  <i_j_Number_of_canonical_orbitals> (1)
704

>  <i_j_Geometry_convergence_category> (1)
2

>  <r_j_Gas_Phase_Energy> (1)
-1068.43346788577

>  <r_j_Final_Energy> (1)
-1068.43346788577

>  <r_j_HOMO> (1)
-0.271396793104077

>  <r_j_LUMO> (1)
0.0194223166387379

>  <r_j_Polarizability> (1)
203.75537698063

>  <r_j_QM_Dipole_(debye)> (1)
1.05654309222478

>  <r_j_QM_Dipole_X_(debye)> (1)
0.495864317748943

>  <r_j_QM_Dipole_Y_(debye)> (1)
0.860698108186005

>  <r_j_QM_Dipole_Z_(debye)> (1)
0.360000903715964

>  <r_j_Lowest_Frequency_(cm-1)> (1)
29.8150341511489

>  <r_j_Highest_Frequency_(cm-1)> (1)
3065.90013063897

>  <r_j_2nd_Lowest_Frequency_(cm-1)> (1)
31.3003729478027

>  <i_j_Num_Negative_Frequencies> (1)
0

>  <r_j_Zero_Point_Energy_(kcal/mol)> (1)
282.915657994219

>  <r_j_Entropy_(cal/mol/K)_298.15K_1.00E+00atm> (1)
157.419405431177

>  <r_j_Enthalpy_(kcal/mol)_298.15K_1.00E+00atm> (1)
15.2545706562756

>  <r_j_Free_Energy_(kcal/mol)_298.15K_1.00E+00atm> (1)
-31.6800250730298

>  <r_j_Internal_Energy_(kcal/mol)_298.15K_1.00E+00atm> (1)
14.6620850674483

>  <r_j_Heat_Capacity_(cal/mol/K)_298.15K_1.00E+00atm> (1)
87.0184124801316

>  <r_j_ln(Q)_298.15K_1.00E+00atm> (1)
53.4696972726967

>  <r_j_Total_Internal_Energy_(au)_298.15K_1.00E+00atm> (1)
-1067.95924756354

>  <r_j_Total_Enthalpy_(au)_298.15K_1.00E+00atm> (1)
-1067.95830337765

>  <r_j_Total_Free_Energy_(au)_298.15K_1.00E+00atm> (1)
-1068.03309841736

>  <r_lp_tautomer_probability> (1)
1

>  <r_epik_Ionization_Penalty> (1)
  0.0000

>  <r_epik_Ionization_Penalty_Charging> (1)
  0.0000

>  <r_epik_Ionization_Penalty_Neutral> (1)
  0.0000

>  <r_epik_State_Penalty> (1)
  0.0000

>  <r_epik_Charging_Adjusted_Penalty> (1)
0

>  <i_epik_Tot_Q> (1)
0

>  <i_epik_Tot_abs_Q> (1)
0

>  <s_lp_Force_Field> (1)
S-OPLS

>  <r_lp_Energy> (1)
-0.927086

>  <b_lp_Chiralities_Consistent> (1)
1

$$$$
