7635_2-ethyl hexyl acetate
                    3D
 Schrodinger Suite 2021-3.
 32 31  0  0  1  0            999 V2000
   -2.8189    2.8987   -0.2454 C   0  0  0  0  0  0
   -2.2140    1.4994   -0.1003 C   0  0  0  0  0  0
   -0.6856    1.5165    0.0300 C   0  0  0  0  0  0
   -0.0882    0.1108    0.1826 C   0  0  0  0  0  0
    1.4520    0.0412    0.1972 C   0  0  0  0  0  0
    1.9672   -1.4096    0.0914 C   0  0  0  0  0  0
    1.7496   -2.0597   -1.2788 C   0  0  0  0  0  0
    2.0028    0.7108    1.4544 C   0  0  0  0  0  0
    3.4449    0.7554    1.3401 O   0  0  0  0  0  0
    4.1077    1.2451    2.4104 C   0  0  0  0  0  0
    3.5611    1.6401    3.4174 O   0  0  0  0  0  0
    5.6033    1.2350    2.1888 C   0  0  0  0  0  0
   -3.9089    2.8575   -0.3398 H   0  0  0  0  0  0
   -2.4259    3.4079   -1.1329 H   0  0  0  0  0  0
   -2.5826    3.5225    0.6243 H   0  0  0  0  0  0
   -2.6452    1.0010    0.7785 H   0  0  0  0  0  0
   -2.4954    0.8844   -0.9661 H   0  0  0  0  0  0
   -0.2511    2.0013   -0.8559 H   0  0  0  0  0  0
   -0.4121    2.1469    0.8861 H   0  0  0  0  0  0
   -0.4758   -0.3555    1.1005 H   0  0  0  0  0  0
   -0.4576   -0.5076   -0.6438 H   0  0  0  0  0  0
    1.8341    0.6052   -0.6667 H   0  0  0  0  0  0
    3.0384   -1.4132    0.3185 H   0  0  0  0  0  0
    1.4832   -2.0131    0.8726 H   0  0  0  0  0  0
    2.1752   -3.0680   -1.3045 H   0  0  0  0  0  0
    2.2333   -1.4746   -2.0695 H   0  0  0  0  0  0
    0.6887   -2.1472   -1.5337 H   0  0  0  0  0  0
    1.6362    1.7331    1.5808 H   0  0  0  0  0  0
    1.7326    0.1506    2.3574 H   0  0  0  0  0  0
    5.8698    0.8284    1.2130 H   0  0  0  0  0  0
    6.0709    0.6425    2.9799 H   0  0  0  0  0  0
    5.9797    2.2575    2.2810 H   0  0  0  0  0  0
  1  2  1  0  0  0
  1 13  1  0  0  0
  1 14  1  0  0  0
  1 15  1  0  0  0
  2  3  1  0  0  0
  2 16  1  0  0  0
  2 17  1  0  0  0
  3  4  1  0  0  0
  3 18  1  0  0  0
  3 19  1  0  0  0
  4  5  1  0  0  0
  4 20  1  0  0  0
  4 21  1  0  0  0
  5  6  1  0  0  0
  5  8  1  0  0  0
  5 22  1  0  0  0
  6  7  1  0  0  0
  6 23  1  0  0  0
  6 24  1  0  0  0
  7 25  1  0  0  0
  7 26  1  0  0  0
  7 27  1  0  0  0
  8  9  1  0  0  0
  8 28  1  0  0  0
  8 29  1  0  0  0
  9 10  1  0  0  0
 10 11  2  0  0  0
 10 12  1  0  0  0
 12 30  1  0  0  0
 12 31  1  0  0  0
 12 32  1  0  0  0
M  END
>  <i_m_Spin_multiplicity> (1)
1

>  <s_j_Task> (1)
Single Point

>  <s_j_QM_Method> (1)
DFT(b3lyp-d3)

>  <s_j_QM_Basis> (1)
cc-pvtz(-f)

>  <i_j_Number_of_canonical_orbitals> (1)
454

>  <i_j_Geometry_convergence_category> (1)
3

>  <r_j_Gas_Phase_Energy> (1)
-543.803800089012

>  <r_j_Final_Energy> (1)
-543.803800089012

>  <r_j_HOMO> (1)
-0.282750196466687

>  <r_j_LUMO> (1)
-0.00122126907731277

>  <r_j_Polarizability> (1)
128.865311815777

>  <r_j_QM_Dipole_(debye)> (1)
2.02501410442369

>  <r_j_QM_Dipole_X_(debye)> (1)
0.0741344035587401

>  <r_j_QM_Dipole_Y_(debye)> (1)
-0.786199493606503

>  <r_j_QM_Dipole_Z_(debye)> (1)
-1.86469208438733

>  <r_j_Lowest_Frequency_(cm-1)> (1)
56.242953371574

>  <r_j_Highest_Frequency_(cm-1)> (1)
3109.21274327167

>  <r_j_2nd_Lowest_Frequency_(cm-1)> (1)
73.5531742907595

>  <i_j_Num_Negative_Frequencies> (1)
0

>  <r_j_Zero_Point_Energy_(kcal/mol)> (1)
180.995741480265

>  <r_j_Entropy_(cal/mol/K)_298.15K_1.00E+00atm> (1)
117.196454537835

>  <r_j_Enthalpy_(kcal/mol)_298.15K_1.00E+00atm> (1)
9.56652023598097

>  <r_j_Free_Energy_(kcal/mol)_298.15K_1.00E+00atm> (1)
-25.3756026844745

>  <r_j_Internal_Energy_(kcal/mol)_298.15K_1.00E+00atm> (1)
8.9740346471537

>  <r_j_Heat_Capacity_(cal/mol/K)_298.15K_1.00E+00atm> (1)
53.102555581607

>  <r_j_ln(Q)_298.15K_1.00E+00atm> (1)
42.829063124896

>  <r_j_Total_Internal_Energy_(au)_298.15K_1.00E+00atm> (1)
-543.501063978707

>  <r_j_Total_Enthalpy_(au)_298.15K_1.00E+00atm> (1)
-543.500119792815

>  <r_j_Total_Free_Energy_(au)_298.15K_1.00E+00atm> (1)
-543.555803610496

>  <r_lp_tautomer_probability> (1)
1

>  <r_epik_Ionization_Penalty> (1)
  0.0000

>  <r_epik_Ionization_Penalty_Charging> (1)
  0.0000

>  <r_epik_Ionization_Penalty_Neutral> (1)
  0.0000

>  <r_epik_State_Penalty> (1)
  0.0000

>  <r_epik_Charging_Adjusted_Penalty> (1)
0

>  <i_epik_Tot_Q> (1)
0

>  <i_epik_Tot_abs_Q> (1)
0

>  <s_lp_Force_Field> (1)
S-OPLS

>  <r_lp_Energy> (1)
4.07236

>  <b_lp_Chiralities_Consistent> (1)
1

>  <s_epik_Chemistry_Notes> (1)
This compound has an ester and may undergo hydrolysis at high or low pH.

$$$$
