7647_Bibenzyl
                    3D
 Schrodinger Suite 2021-3.
 28 29  0  0  1  0            999 V2000
   -1.4424    4.0972    0.0029 C   0  0  0  0  0  0
   -1.2234    3.4278    1.2077 C   0  0  0  0  0  0
   -0.7872    2.1032    1.2025 C   0  0  0  0  0  0
   -0.5630    1.4245   -0.0017 C   0  0  0  0  0  0
   -0.7870    2.1074   -1.2035 C   0  0  0  0  0  0
   -1.2231    3.4321   -1.2041 C   0  0  0  0  0  0
   -0.0252    0.0136   -0.0039 C   0  0  0  0  0  0
    1.5249   -0.0137   -0.0038 C   0  0  0  0  0  0
    2.0629   -1.4245   -0.0016 C   0  0  0  0  0  0
    2.2873   -2.1032    1.2026 C   0  0  0  0  0  0
    2.7236   -3.4278    1.2077 C   0  0  0  0  0  0
    2.9425   -4.0971    0.0030 C   0  0  0  0  0  0
    2.7231   -3.4320   -1.2041 C   0  0  0  0  0  0
    2.2869   -2.1074   -1.2035 C   0  0  0  0  0  0
   -1.7838    5.1282    0.0048 H   0  0  0  0  0  0
   -1.3951    3.9365    2.1521 H   0  0  0  0  0  0
   -0.6186    1.5857    2.1442 H   0  0  0  0  0  0
   -0.6181    1.5932   -2.1470 H   0  0  0  0  0  0
   -1.3946    3.9441   -2.1468 H   0  0  0  0  0  0
   -0.3854   -0.5349    0.8741 H   0  0  0  0  0  0
   -0.3853   -0.5323   -0.8836 H   0  0  0  0  0  0
    1.8852    0.5324   -0.8834 H   0  0  0  0  0  0
    1.8850    0.5348    0.8744 H   0  0  0  0  0  0
    2.1186   -1.5857    2.1443 H   0  0  0  0  0  0
    2.8955   -3.9366    2.1522 H   0  0  0  0  0  0
    3.2840   -5.1282    0.0046 H   0  0  0  0  0  0
    2.8947   -3.9440   -2.1468 H   0  0  0  0  0  0
    2.1179   -1.5932   -2.1469 H   0  0  0  0  0  0
  1  6  1  0  0  0
  1  2  2  0  0  0
  1 15  1  0  0  0
  2  3  1  0  0  0
  2 16  1  0  0  0
  3  4  2  0  0  0
  3 17  1  0  0  0
  4  5  1  0  0  0
  4  7  1  0  0  0
  5  6  2  0  0  0
  5 18  1  0  0  0
  6 19  1  0  0  0
  7  8  1  0  0  0
  7 20  1  0  0  0
  7 21  1  0  0  0
  8  9  1  0  0  0
  8 22  1  0  0  0
  8 23  1  0  0  0
  9 14  1  0  0  0
  9 10  2  0  0  0
 10 11  1  0  0  0
 10 24  1  0  0  0
 11 12  2  0  0  0
 11 25  1  0  0  0
 12 13  1  0  0  0
 12 26  1  0  0  0
 13 14  2  0  0  0
 13 27  1  0  0  0
 14 28  1  0  0  0
M  END
>  <i_m_Spin_multiplicity> (1)
1

>  <s_j_Task> (1)
Single Point

>  <s_j_QM_Method> (1)
DFT(b3lyp-d3)

>  <s_j_QM_Basis> (1)
cc-pvtz(-f)

>  <i_j_Number_of_canonical_orbitals> (1)
438

>  <i_j_Geometry_convergence_category> (1)
3

>  <r_j_Gas_Phase_Energy> (1)
-542.120233793943

>  <r_j_Final_Energy> (1)
-542.120233793943

>  <r_j_HOMO> (1)
-0.235080282391766

>  <r_j_LUMO> (1)
-0.0257524305491204

>  <r_j_Polarizability> (1)
156.017692195343

>  <r_j_QM_Dipole_(debye)> (1)
0.000756727343086331

>  <r_j_QM_Dipole_X_(debye)> (1)
-0.000105265447698793

>  <r_j_QM_Dipole_Y_(debye)> (1)
6.73871777208078e-05

>  <r_j_QM_Dipole_Z_(debye)> (1)
-0.000746333990632944

>  <r_j_Lowest_Frequency_(cm-1)> (1)
66.052077266585

>  <r_j_Highest_Frequency_(cm-1)> (1)
3146.57497631327

>  <r_j_2nd_Lowest_Frequency_(cm-1)> (1)
74.0103960548043

>  <i_j_Num_Negative_Frequencies> (1)
0

>  <r_j_Zero_Point_Energy_(kcal/mol)> (1)
149.055938742282

>  <r_j_Entropy_(cal/mol/K)_298.15K_1.00E+00atm> (1)
102.591713694753

>  <r_j_Enthalpy_(kcal/mol)_298.15K_1.00E+00atm> (1)
7.54372617221598

>  <r_j_Free_Energy_(kcal/mol)_298.15K_1.00E+00atm> (1)
-23.0439932658746

>  <r_j_Internal_Energy_(kcal/mol)_298.15K_1.00E+00atm> (1)
6.95124058338871

>  <r_j_Heat_Capacity_(cal/mol/K)_298.15K_1.00E+00atm> (1)
45.3109416581713

>  <r_j_ln(Q)_298.15K_1.00E+00atm> (1)
38.8937616381291

>  <r_j_Total_Internal_Energy_(au)_298.15K_1.00E+00atm> (1)
-541.871620527078

>  <r_j_Total_Enthalpy_(au)_298.15K_1.00E+00atm> (1)
-541.870676341185

>  <r_j_Total_Free_Energy_(au)_298.15K_1.00E+00atm> (1)
-541.919420975172

>  <r_lp_tautomer_probability> (1)
1

>  <r_epik_Ionization_Penalty> (1)
  0.0000

>  <r_epik_Ionization_Penalty_Charging> (1)
  0.0000

>  <r_epik_Ionization_Penalty_Neutral> (1)
  0.0000

>  <r_epik_State_Penalty> (1)
  0.0000

>  <r_epik_Charging_Adjusted_Penalty> (1)
0

>  <i_epik_Tot_Q> (1)
0

>  <i_epik_Tot_abs_Q> (1)
0

>  <s_lp_Force_Field> (1)
S-OPLS

>  <r_lp_Energy> (1)
19.0447

>  <b_lp_Chiralities_Consistent> (1)
1

$$$$
