7668_N-propylbenzene
                    3D
 Schrodinger Suite 2021-3.
 21 21  0  0  1  0            999 V2000
   -0.5740    1.4658   -0.0002 C   0  0  0  0  0  0
   -0.0221    0.0384   -0.0002 C   0  0  0  0  0  0
    1.5188   -0.0050    0.0002 C   0  0  0  0  0  0
    2.0524   -1.4193    0.0001 C   0  0  0  0  0  0
    2.2773   -2.1013    1.2026 C   0  0  0  0  0  0
    2.7125   -3.4265    1.2055 C   0  0  0  0  0  0
    2.9311   -4.0943   -0.0001 C   0  0  0  0  0  0
    2.7120   -3.4265   -1.2056 C   0  0  0  0  0  0
    2.2768   -2.1013   -1.2025 C   0  0  0  0  0  0
   -1.6688    1.4719   -0.0005 H   0  0  0  0  0  0
   -0.2363    2.0193   -0.8839 H   0  0  0  0  0  0
   -0.2368    2.0191    0.8839 H   0  0  0  0  0  0
   -0.3915   -0.5088    0.8764 H   0  0  0  0  0  0
   -0.3911   -0.5087   -0.8769 H   0  0  0  0  0  0
    1.8919    0.5357   -0.8790 H   0  0  0  0  0  0
    1.8914    0.5354    0.8798 H   0  0  0  0  0  0
    2.1096   -1.5860    2.1456 H   0  0  0  0  0  0
    2.8841   -3.9368    2.1493 H   0  0  0  0  0  0
    3.2722   -5.1256   -0.0001 H   0  0  0  0  0  0
    2.8832   -3.9368   -2.1494 H   0  0  0  0  0  0
    2.1087   -1.5860   -2.1454 H   0  0  0  0  0  0
  1  2  1  0  0  0
  1 10  1  0  0  0
  1 11  1  0  0  0
  1 12  1  0  0  0
  2  3  1  0  0  0
  2 13  1  0  0  0
  2 14  1  0  0  0
  3  4  1  0  0  0
  3 15  1  0  0  0
  3 16  1  0  0  0
  4  9  1  0  0  0
  4  5  2  0  0  0
  5  6  1  0  0  0
  5 17  1  0  0  0
  6  7  2  0  0  0
  6 18  1  0  0  0
  7  8  1  0  0  0
  7 19  1  0  0  0
  8  9  2  0  0  0
  8 20  1  0  0  0
  9 21  1  0  0  0
M  END
>  <i_m_Spin_multiplicity> (1)
1

>  <s_j_Task> (1)
Single Point

>  <s_j_QM_Method> (1)
DFT(b3lyp-d3)

>  <s_j_QM_Basis> (1)
cc-pvtz(-f)

>  <i_j_Number_of_canonical_orbitals> (1)
309

>  <i_j_Geometry_convergence_category> (1)
3

>  <r_j_Gas_Phase_Energy> (1)
-350.321735363937

>  <r_j_Final_Energy> (1)
-350.321735363937

>  <r_j_HOMO> (1)
-0.257279927815716

>  <r_j_LUMO> (1)
-0.0247926689677489

>  <r_j_Polarizability> (1)
102.25573728426

>  <r_j_QM_Dipole_(debye)> (1)
0.377427291610661

>  <r_j_QM_Dipole_X_(debye)> (1)
-0.252231231225769

>  <r_j_QM_Dipole_Y_(debye)> (1)
0.280768137636572

>  <r_j_QM_Dipole_Z_(debye)> (1)
-0.000139050288008378

>  <r_j_Lowest_Frequency_(cm-1)> (1)
85.6843383219151

>  <r_j_Highest_Frequency_(cm-1)> (1)
3145.10287827686

>  <r_j_2nd_Lowest_Frequency_(cm-1)> (1)
118.731559102528

>  <i_j_Num_Negative_Frequencies> (1)
0

>  <r_j_Zero_Point_Energy_(kcal/mol)> (1)
115.832636540688

>  <r_j_Entropy_(cal/mol/K)_298.15K_1.00E+00atm> (1)
88.7294216307823

>  <r_j_Enthalpy_(kcal/mol)_298.15K_1.00E+00atm> (1)
5.76535190975452

>  <r_j_Free_Energy_(kcal/mol)_298.15K_1.00E+00atm> (1)
-20.6893251494632

>  <r_j_Internal_Energy_(kcal/mol)_298.15K_1.00E+00atm> (1)
5.17286632092725

>  <r_j_Heat_Capacity_(cal/mol/K)_298.15K_1.00E+00atm> (1)
32.2369010477716

>  <r_j_ln(Q)_298.15K_1.00E+00atm> (1)
34.919541571322

>  <r_j_Total_Internal_Energy_(au)_298.15K_1.00E+00atm> (1)
-350.128900819366

>  <r_j_Total_Enthalpy_(au)_298.15K_1.00E+00atm> (1)
-350.127956633473

>  <r_j_Total_Free_Energy_(au)_298.15K_1.00E+00atm> (1)
-350.17011484514

>  <r_lp_tautomer_probability> (1)
1

>  <r_epik_Ionization_Penalty> (1)
  0.0000

>  <r_epik_Ionization_Penalty_Charging> (1)
  0.0000

>  <r_epik_Ionization_Penalty_Neutral> (1)
  0.0000

>  <r_epik_State_Penalty> (1)
  0.0000

>  <r_epik_Charging_Adjusted_Penalty> (1)
0

>  <i_epik_Tot_Q> (1)
0

>  <i_epik_Tot_abs_Q> (1)
0

>  <s_lp_Force_Field> (1)
S-OPLS

>  <r_lp_Energy> (1)
9.459997

>  <b_lp_Chiralities_Consistent> (1)
1

$$$$
