7681_N,N-Dimethylbenzylamine
                    3D
 Schrodinger Suite 2021-3.
 24 24  0  0  1  0            999 V2000
   -0.4538   -1.0375   -1.2047 C   0  0  0  0  0  0
   -0.0260   -0.1248   -0.0887 N   0  3  1  0  0  0
   -0.5989   -0.5548    1.2316 C   0  0  0  0  0  0
    1.5062    0.0417   -0.0238 C   0  0  0  0  0  0
    2.0209    0.7628   -1.2339 C   0  0  0  0  0  0
    1.8687    2.1545   -1.3227 C   0  0  0  0  0  0
    2.3000    2.8350   -2.4592 C   0  0  0  0  0  0
    2.8969    2.1305   -3.5074 C   0  0  0  0  0  0
    3.0633    0.7474   -3.4194 C   0  0  0  0  0  0
    2.6245    0.0629   -2.2865 C   0  0  0  0  0  0
   -0.0850   -2.0403   -0.9852 H   0  0  0  0  0  0
   -0.0254   -0.6743   -2.1376 H   0  0  0  0  0  0
   -1.5427   -1.0414   -1.2599 H   0  0  0  0  0  0
   -0.1764   -1.5269    1.4892 H   0  0  0  0  0  0
   -1.6832   -0.6307    1.1443 H   0  0  0  0  0  0
   -0.3339    0.1808    1.9915 H   0  0  0  0  0  0
    1.6974    0.5975    0.8975 H   0  0  0  0  0  0
    1.9115   -0.9673    0.0815 H   0  0  0  0  0  0
    1.4321    2.7115   -0.4954 H   0  0  0  0  0  0
    2.1851    3.9121   -2.5219 H   0  0  0  0  0  0
    3.2407    2.6620   -4.3890 H   0  0  0  0  0  0
    3.5382    0.2031   -4.2290 H   0  0  0  0  0  0
    2.7618   -1.0132   -2.2165 H   0  0  0  0  0  0
   -0.3916    0.8082   -0.3079 H   0  0  0  0  0  0
  1  2  1  0  0  0
  1 11  1  0  0  0
  1 12  1  0  0  0
  1 13  1  0  0  0
  2  3  1  0  0  0
  2  4  1  0  0  0
  2 24  1  0  0  0
  3 14  1  0  0  0
  3 15  1  0  0  0
  3 16  1  0  0  0
  4  5  1  0  0  0
  4 17  1  0  0  0
  4 18  1  0  0  0
  5 10  1  0  0  0
  5  6  2  0  0  0
  6  7  1  0  0  0
  6 19  1  0  0  0
  7  8  2  0  0  0
  7 20  1  0  0  0
  8  9  1  0  0  0
  8 21  1  0  0  0
  9 10  2  0  0  0
  9 22  1  0  0  0
 10 23  1  0  0  0
M  END
>  <i_m_Spin_multiplicity> (1)
1

>  <s_j_Task> (1)
Single Point

>  <s_j_QM_Method> (1)
DFT(b3lyp-d3)

>  <s_j_QM_Basis> (1)
cc-pvtz(-f)

>  <i_j_Number_of_canonical_orbitals> (1)
351

>  <i_j_Geometry_convergence_category> (1)
0

>  <r_j_Gas_Phase_Energy> (1)
-406.059680282314

>  <r_j_Final_Energy> (1)
-406.059680282314

>  <r_j_HOMO> (1)
-0.374457369181488

>  <r_j_LUMO> (1)
-0.154887521073949

>  <r_j_Polarizability> (1)
105.710532602287

>  <r_j_QM_Dipole_(debye)> (1)
6.90613485184

>  <r_j_QM_Dipole_X_(debye)> (1)
-4.93060339190905

>  <r_j_QM_Dipole_Y_(debye)> (1)
-2.81109147000177

>  <r_j_QM_Dipole_Z_(debye)> (1)
3.93466816018549

>  <r_j_Lowest_Frequency_(cm-1)> (1)
84.7788608038358

>  <r_j_Highest_Frequency_(cm-1)> (1)
3378.96914040571

>  <r_j_2nd_Lowest_Frequency_(cm-1)> (1)
103.761158985201

>  <i_j_Num_Negative_Frequencies> (1)
0

>  <r_j_Zero_Point_Energy_(kcal/mol)> (1)
136.115125137527

>  <r_j_Entropy_(cal/mol/K)_298.15K_1.00E+00atm> (1)
93.5054806863807

>  <r_j_Enthalpy_(kcal/mol)_298.15K_1.00E+00atm> (1)
6.42693187924057

>  <r_j_Free_Energy_(kcal/mol)_298.15K_1.00E+00atm> (1)
-21.4517271874038

>  <r_j_Internal_Energy_(kcal/mol)_298.15K_1.00E+00atm> (1)
5.83444629041329

>  <r_j_Heat_Capacity_(cal/mol/K)_298.15K_1.00E+00atm> (1)
36.9227944756687

>  <r_j_ln(Q)_298.15K_1.00E+00atm> (1)
36.2063273637827

>  <r_j_Total_Internal_Energy_(au)_298.15K_1.00E+00atm> (1)
-405.833469239749

>  <r_j_Total_Enthalpy_(au)_298.15K_1.00E+00atm> (1)
-405.832525053857

>  <r_j_Total_Free_Energy_(au)_298.15K_1.00E+00atm> (1)
-405.876952525313

>  <r_epik_Ionization_Penalty> (1)
  0.0453

>  <r_epik_Ionization_Penalty_Charging> (1)
  0.0453

>  <r_epik_Ionization_Penalty_Neutral> (1)
  0.0000

>  <r_epik_State_Penalty> (1)
  0.0384

>  <r_epik_Charging_Adjusted_Penalty> (1)
0.0837220897471821

>  <i_epik_Tot_Q> (1)
1

>  <i_epik_Tot_abs_Q> (1)
1

>  <s_lp_Force_Field> (1)
S-OPLS

>  <r_lp_Energy> (1)
20.042469

>  <b_lp_Chiralities_Consistent> (1)
1

$$$$
