77058_5-methyl-1-hexene
                    3D
 Schrodinger Suite 2021-3.
 21 20  0  0  1  0            999 V2000
   -0.7003   -0.6424   -1.2692 C   0  0  0  0  0  0
   -0.0654    0.0113   -0.0328 C   0  0  0  0  0  0
   -0.6043    1.4366    0.1560 C   0  0  0  0  0  0
    1.4730    0.0253   -0.1038 C   0  0  0  0  0  0
    2.1298   -1.3675   -0.1574 C   0  0  0  0  0  0
    3.6292   -1.2962   -0.0681 C   0  0  0  0  0  0
    4.4789   -1.7103   -1.0078 C   0  0  0  0  0  0
   -0.4017   -0.1114   -2.1817 H   0  0  0  0  0  0
   -1.7936   -0.6126   -1.2100 H   0  0  0  0  0  0
   -0.4048   -1.6900   -1.3802 H   0  0  0  0  0  0
   -0.3528   -0.5803    0.8500 H   0  0  0  0  0  0
   -0.3422    2.0670   -0.7027 H   0  0  0  0  0  0
   -0.1880    1.9072    1.0534 H   0  0  0  0  0  0
   -1.6957    1.4402    0.2490 H   0  0  0  0  0  0
    1.7908    0.6048   -0.9818 H   0  0  0  0  0  0
    1.8610    0.5639    0.7720 H   0  0  0  0  0  0
    1.7422   -1.9680    0.6797 H   0  0  0  0  0  0
    1.8434   -1.8894   -1.0772 H   0  0  0  0  0  0
    4.0263   -0.8489    0.8449 H   0  0  0  0  0  0
    4.1276   -2.1570   -1.9353 H   0  0  0  0  0  0
    5.5546   -1.6206   -0.8877 H   0  0  0  0  0  0
  1  2  1  0  0  0
  1  8  1  0  0  0
  1  9  1  0  0  0
  1 10  1  0  0  0
  2  3  1  0  0  0
  2  4  1  0  0  0
  2 11  1  0  0  0
  3 12  1  0  0  0
  3 13  1  0  0  0
  3 14  1  0  0  0
  4  5  1  0  0  0
  4 15  1  0  0  0
  4 16  1  0  0  0
  5  6  1  0  0  0
  5 17  1  0  0  0
  5 18  1  0  0  0
  6  7  2  0  0  0
  6 19  1  0  0  0
  7 20  1  0  0  0
  7 21  1  0  0  0
M  END
>  <i_m_Spin_multiplicity> (1)
1

>  <s_j_Task> (1)
Single Point

>  <s_j_QM_Method> (1)
DFT(b3lyp-d3)

>  <s_j_QM_Basis> (1)
cc-pvtz(-f)

>  <i_j_Number_of_canonical_orbitals> (1)
285

>  <i_j_Geometry_convergence_category> (1)
3

>  <r_j_Gas_Phase_Energy> (1)
-275.274236812163

>  <r_j_Final_Energy> (1)
-275.274236812163

>  <r_j_HOMO> (1)
-0.263176469262423

>  <r_j_LUMO> (1)
0.00372840682017698

>  <r_j_Polarizability> (1)
86.4114993868146

>  <r_j_QM_Dipole_(debye)> (1)
0.458866103985063

>  <r_j_QM_Dipole_X_(debye)> (1)
-0.395265056921649

>  <r_j_QM_Dipole_Y_(debye)> (1)
0.0779316254964399

>  <r_j_QM_Dipole_Z_(debye)> (1)
0.219659504485097

>  <r_j_Lowest_Frequency_(cm-1)> (1)
106.73158486602

>  <r_j_Highest_Frequency_(cm-1)> (1)
3167.66383551855

>  <r_j_2nd_Lowest_Frequency_(cm-1)> (1)
119.136202102583

>  <i_j_Num_Negative_Frequencies> (1)
0

>  <r_j_Zero_Point_Energy_(kcal/mol)> (1)
121.261364929622

>  <r_j_Entropy_(cal/mol/K)_298.15K_1.00E+00atm> (1)
88.5500884459356

>  <r_j_Enthalpy_(kcal/mol)_298.15K_1.00E+00atm> (1)
5.95983355691664

>  <r_j_Free_Energy_(kcal/mol)_298.15K_1.00E+00atm> (1)
-20.4413753132391

>  <r_j_Internal_Energy_(kcal/mol)_298.15K_1.00E+00atm> (1)
5.36734796808937

>  <r_j_Heat_Capacity_(cal/mol/K)_298.15K_1.00E+00atm> (1)
32.0461289600705

>  <r_j_ln(Q)_298.15K_1.00E+00atm> (1)
34.5010506562689

>  <r_j_Total_Internal_Energy_(au)_298.15K_1.00E+00atm> (1)
-275.072441111936

>  <r_j_Total_Enthalpy_(au)_298.15K_1.00E+00atm> (1)
-275.071496926044

>  <r_j_Total_Free_Energy_(au)_298.15K_1.00E+00atm> (1)
-275.113569930727

>  <r_lp_tautomer_probability> (1)
1

>  <r_epik_Ionization_Penalty> (1)
  0.0000

>  <r_epik_Ionization_Penalty_Charging> (1)
  0.0000

>  <r_epik_Ionization_Penalty_Neutral> (1)
  0.0000

>  <r_epik_State_Penalty> (1)
  0.0000

>  <r_epik_Charging_Adjusted_Penalty> (1)
0

>  <i_epik_Tot_Q> (1)
0

>  <i_epik_Tot_abs_Q> (1)
0

>  <s_lp_Force_Field> (1)
S-OPLS

>  <r_lp_Energy> (1)
0.199502

>  <b_lp_Chiralities_Consistent> (1)
1

$$$$
