7705_N-butylbenzene
                    3D
 Schrodinger Suite 2021-3.
 24 24  0  0  1  0            999 V2000
   -0.6007    1.4819    0.0022 C   0  0  0  0  0  0
   -0.0566    0.0504    0.0010 C   0  0  0  0  0  0
    1.4745   -0.0045   -0.0014 C   0  0  0  0  0  0
    2.0296   -1.4417   -0.0021 C   0  0  0  0  0  0
    3.5409   -1.4735   -0.0012 C   0  0  0  0  0  0
    4.2598   -1.4603   -1.2031 C   0  0  0  0  0  0
    5.6543   -1.4323   -1.2049 C   0  0  0  0  0  0
    6.3559   -1.4168    0.0012 C   0  0  0  0  0  0
    5.6522   -1.4297    1.2062 C   0  0  0  0  0  0
    4.2577   -1.4579    1.2019 C   0  0  0  0  0  0
   -1.6954    1.4968    0.0041 H   0  0  0  0  0  0
   -0.2604    2.0330   -0.8820 H   0  0  0  0  0  0
   -0.2573    2.0327    0.8853 H   0  0  0  0  0  0
   -0.4364   -0.4899    0.8790 H   0  0  0  0  0  0
   -0.4392   -0.4896   -0.8760 H   0  0  0  0  0  0
    1.8640    0.5292   -0.8789 H   0  0  0  0  0  0
    1.8665    0.5291    0.8750 H   0  0  0  0  0  0
    1.6449   -1.9746    0.8767 H   0  0  0  0  0  0
    1.6457   -1.9736   -0.8820 H   0  0  0  0  0  0
    3.7187   -1.4734   -2.1466 H   0  0  0  0  0  0
    6.1934   -1.4264   -2.1483 H   0  0  0  0  0  0
    7.4420   -1.3978    0.0022 H   0  0  0  0  0  0
    6.1896   -1.4217    2.1505 H   0  0  0  0  0  0
    3.7151   -1.4690    2.1445 H   0  0  0  0  0  0
  1  2  1  0  0  0
  1 11  1  0  0  0
  1 12  1  0  0  0
  1 13  1  0  0  0
  2  3  1  0  0  0
  2 14  1  0  0  0
  2 15  1  0  0  0
  3  4  1  0  0  0
  3 16  1  0  0  0
  3 17  1  0  0  0
  4  5  1  0  0  0
  4 18  1  0  0  0
  4 19  1  0  0  0
  5 10  1  0  0  0
  5  6  2  0  0  0
  6  7  1  0  0  0
  6 20  1  0  0  0
  7  8  2  0  0  0
  7 21  1  0  0  0
  8  9  1  0  0  0
  8 22  1  0  0  0
  9 10  2  0  0  0
  9 23  1  0  0  0
 10 24  1  0  0  0
M  END
>  <i_m_Spin_multiplicity> (1)
1

>  <s_j_Task> (1)
Single Point

>  <s_j_QM_Method> (1)
DFT(b3lyp-d3)

>  <s_j_QM_Basis> (1)
cc-pvtz(-f)

>  <i_j_Number_of_canonical_orbitals> (1)
349

>  <i_j_Geometry_convergence_category> (1)
0

>  <r_j_Gas_Phase_Energy> (1)
-389.651189384638

>  <r_j_Final_Energy> (1)
-389.651189384638

>  <r_j_HOMO> (1)
-0.2510397708418

>  <r_j_LUMO> (1)
-0.0182690387632779

>  <r_j_Polarizability> (1)
114.745193522133

>  <r_j_QM_Dipole_(debye)> (1)
0.427748295494927

>  <r_j_QM_Dipole_X_(debye)> (1)
-0.416054160065968

>  <r_j_QM_Dipole_Y_(debye)> (1)
0.0993352676108435

>  <r_j_QM_Dipole_Z_(debye)> (1)
0.000211658450081102

>  <r_j_Lowest_Frequency_(cm-1)> (1)
73.8440544912509

>  <r_j_Highest_Frequency_(cm-1)> (1)
3144.60101482809

>  <r_j_2nd_Lowest_Frequency_(cm-1)> (1)
94.6444269830351

>  <i_j_Num_Negative_Frequencies> (1)
0

>  <r_j_Zero_Point_Energy_(kcal/mol)> (1)
133.707434871825

>  <r_j_Entropy_(cal/mol/K)_298.15K_1.00E+00atm> (1)
94.8100267449142

>  <r_j_Enthalpy_(kcal/mol)_298.15K_1.00E+00atm> (1)
6.52741358999326

>  <r_j_Free_Energy_(kcal/mol)_298.15K_1.00E+00atm> (1)
-21.7401958840029

>  <r_j_Internal_Energy_(kcal/mol)_298.15K_1.00E+00atm> (1)
5.93492800116598

>  <r_j_Heat_Capacity_(cal/mol/K)_298.15K_1.00E+00atm> (1)
36.9828421483662

>  <r_j_ln(Q)_298.15K_1.00E+00atm> (1)
36.6932062044479

>  <r_j_Total_Internal_Energy_(au)_298.15K_1.00E+00atm> (1)
-389.428655112968

>  <r_j_Total_Enthalpy_(au)_298.15K_1.00E+00atm> (1)
-389.427710927075

>  <r_j_Total_Free_Energy_(au)_298.15K_1.00E+00atm> (1)
-389.472758230463

>  <r_lp_tautomer_probability> (1)
1

>  <r_epik_Ionization_Penalty> (1)
  0.0000

>  <r_epik_Ionization_Penalty_Charging> (1)
  0.0000

>  <r_epik_Ionization_Penalty_Neutral> (1)
  0.0000

>  <r_epik_State_Penalty> (1)
  0.0000

>  <r_epik_Charging_Adjusted_Penalty> (1)
0

>  <i_epik_Tot_Q> (1)
0

>  <i_epik_Tot_abs_Q> (1)
0

>  <s_lp_Force_Field> (1)
S-OPLS

>  <r_lp_Energy> (1)
9.911329

>  <b_lp_Chiralities_Consistent> (1)
1

$$$$
