7714_Undecanoic-g-lactone
                    3D
 Schrodinger Suite 2021-3.
 33 33  0  0  1  0            999 V2000
   -2.6923    2.9430   -0.0175 C   0  0  0  0  0  0
   -2.1277    1.5206    0.0435 C   0  0  0  0  0  0
   -0.5959    1.4802   -0.0106 C   0  0  0  0  0  0
   -0.0220    0.0602    0.0457 C   0  0  0  0  0  0
    1.5089    0.0182   -0.0200 C   0  0  0  0  0  0
    2.0763   -1.4043    0.0334 C   0  0  0  0  0  0
    3.6054   -1.4429   -0.0517 C   0  0  0  0  0  0
    4.1823   -2.8561    0.0161 C   0  0  0  0  0  0
    5.7252   -2.9084    0.0538 C   0  0  0  0  0  0
    6.0222   -2.8906    1.5559 C   0  0  0  0  0  0
    4.7672   -3.4977    2.1761 C   0  0  0  0  0  0
    4.6170   -3.9217    3.2918 O   0  0  0  0  0  0
    3.7625   -3.4939    1.2531 O   0  0  0  0  0  0
   -3.7865    2.9444    0.0216 H   0  0  0  0  0  0
   -2.3908    3.4472   -0.9430 H   0  0  0  0  0  0
   -2.3277    3.5481    0.8205 H   0  0  0  0  0  0
   -2.4697    1.0274    0.9636 H   0  0  0  0  0  0
   -2.5338    0.9274   -0.7871 H   0  0  0  0  0  0
   -0.2527    1.9757   -0.9305 H   0  0  0  0  0  0
   -0.1875    2.0719    0.8213 H   0  0  0  0  0  0
   -0.3589   -0.4332    0.9683 H   0  0  0  0  0  0
   -0.4366   -0.5321   -0.7826 H   0  0  0  0  0  0
    1.8467    0.5138   -0.9418 H   0  0  0  0  0  0
    1.9249    0.6070    0.8100 H   0  0  0  0  0  0
    1.7599   -1.8980    0.9594 H   0  0  0  0  0  0
    1.6543   -1.9976   -0.7904 H   0  0  0  0  0  0
    3.9424   -0.9852   -0.9918 H   0  0  0  0  0  0
    4.0392   -0.8437    0.7610 H   0  0  0  0  0  0
    3.7680   -3.4670   -0.7922 H   0  0  0  0  0  0
    6.0796   -3.8425   -0.3922 H   0  0  0  0  0  0
    6.1749   -2.0784   -0.4964 H   0  0  0  0  0  0
    6.9022   -3.4576    1.8633 H   0  0  0  0  0  0
    6.1316   -1.8736    1.9495 H   0  0  0  0  0  0
  1  2  1  0  0  0
  1 14  1  0  0  0
  1 15  1  0  0  0
  1 16  1  0  0  0
  2  3  1  0  0  0
  2 17  1  0  0  0
  2 18  1  0  0  0
  3  4  1  0  0  0
  3 19  1  0  0  0
  3 20  1  0  0  0
  4  5  1  0  0  0
  4 21  1  0  0  0
  4 22  1  0  0  0
  5  6  1  0  0  0
  5 23  1  0  0  0
  5 24  1  0  0  0
  6  7  1  0  0  0
  6 25  1  0  0  0
  6 26  1  0  0  0
  7  8  1  0  0  0
  7 27  1  0  0  0
  7 28  1  0  0  0
  8 13  1  0  0  0
  8  9  1  0  0  0
  8 29  1  0  0  0
  9 10  1  0  0  0
  9 30  1  0  0  0
  9 31  1  0  0  0
 10 11  1  0  0  0
 10 32  1  0  0  0
 10 33  1  0  0  0
 11 12  2  0  0  0
 11 13  1  0  0  0
M  END
>  <i_m_Spin_multiplicity> (1)
1

>  <s_j_Task> (1)
Single Point

>  <s_j_QM_Method> (1)
DFT(b3lyp-d3)

>  <s_j_QM_Basis> (1)
cc-pvtz(-f)

>  <i_j_Number_of_canonical_orbitals> (1)
476

>  <i_j_Geometry_convergence_category> (1)
3

>  <r_j_Gas_Phase_Energy> (1)
-581.920734707396

>  <r_j_Final_Energy> (1)
-581.920734707396

>  <r_j_HOMO> (1)
-0.300779725497847

>  <r_j_LUMO> (1)
-0.0241854771477642

>  <r_j_Polarizability> (1)
135.718550569722

>  <r_j_QM_Dipole_(debye)> (1)
4.42990918857094

>  <r_j_QM_Dipole_X_(debye)> (1)
1.35628745639924

>  <r_j_QM_Dipole_Y_(debye)> (1)
2.03292289264797

>  <r_j_QM_Dipole_Z_(debye)> (1)
-3.69483480918256

>  <r_j_Lowest_Frequency_(cm-1)> (1)
48.9109395478854

>  <r_j_Highest_Frequency_(cm-1)> (1)
3083.05234582771

>  <r_j_2nd_Lowest_Frequency_(cm-1)> (1)
74.7752537307414

>  <i_j_Num_Negative_Frequencies> (1)
0

>  <r_j_Zero_Point_Energy_(kcal/mol)> (1)
186.170825179569

>  <r_j_Entropy_(cal/mol/K)_298.15K_1.00E+00atm> (1)
115.043176532705

>  <r_j_Enthalpy_(kcal/mol)_298.15K_1.00E+00atm> (1)
9.16715451388563

>  <r_j_Free_Energy_(kcal/mol)_298.15K_1.00E+00atm> (1)
-25.1329685693403

>  <r_j_Internal_Energy_(kcal/mol)_298.15K_1.00E+00atm> (1)
8.57466892505836

>  <r_j_Heat_Capacity_(cal/mol/K)_298.15K_1.00E+00atm> (1)
52.3393982815396

>  <r_j_ln(Q)_298.15K_1.00E+00atm> (1)
42.4195441092277

>  <r_j_Total_Internal_Energy_(au)_298.15K_1.00E+00atm> (1)
-581.610388006007

>  <r_j_Total_Enthalpy_(au)_298.15K_1.00E+00atm> (1)
-581.609443820115

>  <r_j_Total_Free_Energy_(au)_298.15K_1.00E+00atm> (1)
-581.664104545926

>  <r_lp_tautomer_probability> (1)
1

>  <r_epik_Ionization_Penalty> (1)
  0.0000

>  <r_epik_Ionization_Penalty_Charging> (1)
  0.0000

>  <r_epik_Ionization_Penalty_Neutral> (1)
  0.0000

>  <r_epik_State_Penalty> (1)
  0.0000

>  <r_epik_Charging_Adjusted_Penalty> (1)
0

>  <i_epik_Tot_Q> (1)
0

>  <i_epik_Tot_abs_Q> (1)
0

>  <s_lp_Force_Field> (1)
S-OPLS

>  <r_lp_Energy> (1)
0.275587

>  <b_lp_Chiralities_Consistent> (1)
1

>  <s_epik_Chemistry_Notes> (1)
This compound has an ester and may undergo hydrolysis at high or low pH.

$$$$
