77414_Isobutylcyclopentane
                    3D
 Schrodinger Suite 2021-3.
 27 27  0  0  1  0            999 V2000
   -0.6609   -0.6978   -1.2772 C   0  0  0  0  0  0
   -0.0688    0.0510   -0.0747 C   0  0  0  0  0  0
   -0.5093    1.5217   -0.0865 C   0  0  0  0  0  0
    1.4691   -0.0443   -0.0220 C   0  0  0  0  0  0
    2.0512   -1.4593    0.0489 C   0  0  0  0  0  0
    3.5845   -1.4977    0.1990 C   0  0  0  0  0  0
    3.9053   -2.9405    0.6574 C   0  0  0  0  0  0
    2.5895   -3.4798    1.3004 C   0  0  0  0  0  0
    1.5903   -2.3032    1.2515 C   0  0  0  0  0  0
   -0.2515   -0.3068   -2.2172 H   0  0  0  0  0  0
   -1.7494   -0.5804   -1.3148 H   0  0  0  0  0  0
   -0.4453   -1.7700   -1.2399 H   0  0  0  0  0  0
   -0.4665   -0.4106    0.8405 H   0  0  0  0  0  0
   -0.1449    2.0291   -0.9886 H   0  0  0  0  0  0
   -0.1169    2.0640    0.7809 H   0  0  0  0  0  0
   -1.6011    1.6110   -0.0737 H   0  0  0  0  0  0
    1.8832    0.4707   -0.9017 H   0  0  0  0  0  0
    1.8229    0.5187    0.8543 H   0  0  0  0  0  0
    1.7897   -2.0037   -0.8706 H   0  0  0  0  0  0
    4.1094   -1.2121   -0.7187 H   0  0  0  0  0  0
    3.8814   -0.7788    0.9748 H   0  0  0  0  0  0
    4.1933   -3.5609   -0.1979 H   0  0  0  0  0  0
    4.7470   -2.9642    1.3565 H   0  0  0  0  0  0
    2.2027   -4.3224    0.7166 H   0  0  0  0  0  0
    2.7411   -3.8493    2.3193 H   0  0  0  0  0  0
    1.6695   -1.6934    2.1626 H   0  0  0  0  0  0
    0.5495   -2.6342    1.1759 H   0  0  0  0  0  0
  1  2  1  0  0  0
  1 10  1  0  0  0
  1 11  1  0  0  0
  1 12  1  0  0  0
  2  3  1  0  0  0
  2  4  1  0  0  0
  2 13  1  0  0  0
  3 14  1  0  0  0
  3 15  1  0  0  0
  3 16  1  0  0  0
  4  5  1  0  0  0
  4 17  1  0  0  0
  4 18  1  0  0  0
  5  9  1  0  0  0
  5  6  1  0  0  0
  5 19  1  0  0  0
  6  7  1  0  0  0
  6 20  1  0  0  0
  6 21  1  0  0  0
  7  8  1  0  0  0
  7 22  1  0  0  0
  7 23  1  0  0  0
  8  9  1  0  0  0
  8 24  1  0  0  0
  8 25  1  0  0  0
  9 26  1  0  0  0
  9 27  1  0  0  0
M  END
>  <i_m_Spin_multiplicity> (1)
1

>  <s_j_Task> (1)
Single Point

>  <s_j_QM_Method> (1)
DFT(b3lyp-d3)

>  <s_j_QM_Basis> (1)
cc-pvtz(-f)

>  <i_j_Number_of_canonical_orbitals> (1)
365

>  <i_j_Geometry_convergence_category> (1)
1

>  <r_j_Gas_Phase_Energy> (1)
-353.953606980364

>  <r_j_Final_Energy> (1)
-353.953606980364

>  <r_j_HOMO> (1)
-0.307075988695655

>  <r_j_LUMO> (1)
0.0132638691568014

>  <r_j_Polarizability> (1)
105.742215922419

>  <r_j_QM_Dipole_(debye)> (1)
0.098961544895618

>  <r_j_QM_Dipole_X_(debye)> (1)
-0.0369708723198841

>  <r_j_QM_Dipole_Y_(debye)> (1)
-0.0866975993111274

>  <r_j_QM_Dipole_Z_(debye)> (1)
0.030167337332311

>  <r_j_Lowest_Frequency_(cm-1)> (1)
89.6738906908336

>  <r_j_Highest_Frequency_(cm-1)> (1)
3051.40922492611

>  <r_j_2nd_Lowest_Frequency_(cm-1)> (1)
115.780016618822

>  <i_j_Num_Negative_Frequencies> (1)
0

>  <r_j_Zero_Point_Energy_(kcal/mol)> (1)
158.868126895414

>  <r_j_Entropy_(cal/mol/K)_298.15K_1.00E+00atm> (1)
95.1361869053658

>  <r_j_Enthalpy_(kcal/mol)_298.15K_1.00E+00atm> (1)
6.7495430082345

>  <r_j_Free_Energy_(kcal/mol)_298.15K_1.00E+00atm> (1)
-21.6153111176003

>  <r_j_Internal_Energy_(kcal/mol)_298.15K_1.00E+00atm> (1)
6.15705741940723

>  <r_j_Heat_Capacity_(cal/mol/K)_298.15K_1.00E+00atm> (1)
38.5153912113543

>  <r_j_ln(Q)_298.15K_1.00E+00atm> (1)
36.4824251006412

>  <r_j_Total_Internal_Energy_(au)_298.15K_1.00E+00atm> (1)
-353.69062260769

>  <r_j_Total_Enthalpy_(au)_298.15K_1.00E+00atm> (1)
-353.689678421798

>  <r_j_Total_Free_Energy_(au)_298.15K_1.00E+00atm> (1)
-353.734880694404

>  <r_lp_tautomer_probability> (1)
1

>  <r_epik_Ionization_Penalty> (1)
  0.0000

>  <r_epik_Ionization_Penalty_Charging> (1)
  0.0000

>  <r_epik_Ionization_Penalty_Neutral> (1)
  0.0000

>  <r_epik_State_Penalty> (1)
  0.0000

>  <r_epik_Charging_Adjusted_Penalty> (1)
0

>  <i_epik_Tot_Q> (1)
0

>  <i_epik_Tot_abs_Q> (1)
0

>  <s_lp_Force_Field> (1)
S-OPLS

>  <r_lp_Energy> (1)
8.61346

>  <b_lp_Chiralities_Consistent> (1)
1

$$$$
