7749_Ethyl propionate
                    3D
 Schrodinger Suite 2021-3.
 17 16  0  0  1  0            999 V2000
   -0.4613    1.4479   -0.2898 C   0  0  0  0  0  0
   -0.0135    0.0562    0.1824 C   0  0  0  0  0  0
    1.4921   -0.1146    0.1583 C   0  0  0  0  0  0
    2.1847   -0.4028    1.1107 O   0  0  0  0  0  0
    1.9855    0.0997   -1.0839 O   0  0  0  0  0  0
    3.4197   -0.0270   -1.2219 C   0  0  0  0  0  0
    3.7588    0.2679   -2.6700 C   0  0  0  0  0  0
   -1.5512    1.5332   -0.2524 H   0  0  0  0  0  0
   -0.1335    1.6307   -1.3159 H   0  0  0  0  0  0
   -0.0399    2.2318    0.3475 H   0  0  0  0  0  0
   -0.3397   -0.1424    1.2056 H   0  0  0  0  0  0
   -0.4496   -0.7118   -0.4679 H   0  0  0  0  0  0
    3.9058    0.6711   -0.5324 H   0  0  0  0  0  0
    3.7169   -1.0383   -0.9250 H   0  0  0  0  0  0
    4.8387    0.1840   -2.8263 H   0  0  0  0  0  0
    3.4471    1.2804   -2.9429 H   0  0  0  0  0  0
    3.2564   -0.4382   -3.3375 H   0  0  0  0  0  0
  1  2  1  0  0  0
  1  8  1  0  0  0
  1  9  1  0  0  0
  1 10  1  0  0  0
  2  3  1  0  0  0
  2 11  1  0  0  0
  2 12  1  0  0  0
  3  4  2  0  0  0
  3  5  1  0  0  0
  5  6  1  0  0  0
  6  7  1  0  0  0
  6 13  1  0  0  0
  6 14  1  0  0  0
  7 15  1  0  0  0
  7 16  1  0  0  0
  7 17  1  0  0  0
M  END
>  <i_m_Spin_multiplicity> (1)
1

>  <s_j_Task> (1)
Single Point

>  <s_j_QM_Method> (1)
DFT(b3lyp-d3)

>  <s_j_QM_Basis> (1)
cc-pvtz(-f)

>  <i_j_Number_of_canonical_orbitals> (1)
250

>  <i_j_Geometry_convergence_category> (1)
3

>  <r_j_Gas_Phase_Energy> (1)
-347.156877690734

>  <r_j_Final_Energy> (1)
-347.156877690734

>  <r_j_HOMO> (1)
-0.273958524405222

>  <r_j_LUMO> (1)
0.00336278113106061

>  <r_j_Polarizability> (1)
67.3821312159427

>  <r_j_QM_Dipole_(debye)> (1)
2.06083683878234

>  <r_j_QM_Dipole_X_(debye)> (1)
-0.459886666688909

>  <r_j_QM_Dipole_Y_(debye)> (1)
0.557975990495803

>  <r_j_QM_Dipole_Z_(debye)> (1)
-1.92982266644228

>  <r_j_Lowest_Frequency_(cm-1)> (1)
95.1014681041112

>  <r_j_Highest_Frequency_(cm-1)> (1)
3084.4514929854

>  <r_j_2nd_Lowest_Frequency_(cm-1)> (1)
103.651509023246

>  <i_j_Num_Negative_Frequencies> (1)
0

>  <r_j_Zero_Point_Energy_(kcal/mol)> (1)
92.0539912825206

>  <r_j_Entropy_(cal/mol/K)_298.15K_1.00E+00atm> (1)
87.3048899357026

>  <r_j_Enthalpy_(kcal/mol)_298.15K_1.00E+00atm> (1)
5.66116983159421

>  <r_j_Free_Energy_(kcal/mol)_298.15K_1.00E+00atm> (1)
-20.3687831027355

>  <r_j_Internal_Energy_(kcal/mol)_298.15K_1.00E+00atm> (1)
5.06868424276694

>  <r_j_Heat_Capacity_(cal/mol/K)_298.15K_1.00E+00atm> (1)
28.5245644086483

>  <r_j_ln(Q)_298.15K_1.00E+00atm> (1)
34.3785291774811

>  <r_j_Total_Internal_Energy_(au)_298.15K_1.00E+00atm> (1)
-347.002102854388

>  <r_j_Total_Enthalpy_(au)_298.15K_1.00E+00atm> (1)
-347.001158668495

>  <r_j_Total_Free_Energy_(au)_298.15K_1.00E+00atm> (1)
-347.042640039182

>  <r_lp_tautomer_probability> (1)
1

>  <r_epik_Ionization_Penalty> (1)
  0.0000

>  <r_epik_Ionization_Penalty_Charging> (1)
  0.0000

>  <r_epik_Ionization_Penalty_Neutral> (1)
  0.0000

>  <r_epik_State_Penalty> (1)
  0.0000

>  <r_epik_Charging_Adjusted_Penalty> (1)
0

>  <i_epik_Tot_Q> (1)
0

>  <i_epik_Tot_abs_Q> (1)
0

>  <s_lp_Force_Field> (1)
S-OPLS

>  <r_lp_Energy> (1)
1.21068

>  <b_lp_Chiralities_Consistent> (1)
1

>  <s_epik_Chemistry_Notes> (1)
This compound has an ester and may undergo hydrolysis at high or low pH.

$$$$
