7765_Diethyl acetal acetaldehyde
                    3D
 Schrodinger Suite 2021-3.
 22 21  0  0  1  0            999 V2000
   -2.1424    1.0619    0.0610 C   0  0  0  0  0  0
   -0.6370    1.2609    0.1143 C   0  0  0  0  0  0
   -0.0228    0.0196   -0.1995 O   0  0  0  0  0  0
    1.3991    0.0113   -0.1161 C   0  0  0  0  0  0
    2.0298    0.4200   -1.4368 C   0  0  0  0  0  0
    1.8196   -1.2887    0.1639 O   0  0  0  0  0  0
    1.4008   -1.7821    1.4370 C   0  0  0  0  0  0
    1.9581   -3.1857    1.5942 C   0  0  0  0  0  0
   -2.6635    1.9940    0.3016 H   0  0  0  0  0  0
   -2.4487    0.2938    0.7772 H   0  0  0  0  0  0
   -2.4474    0.7383   -0.9381 H   0  0  0  0  0  0
   -0.3309    2.0434   -0.5992 H   0  0  0  0  0  0
   -0.3258    1.5996    1.1173 H   0  0  0  0  0  0
    1.7054    0.6983    0.6996 H   0  0  0  0  0  0
    1.7115   -0.2828   -2.2106 H   0  0  0  0  0  0
    3.1202    0.4011   -1.3620 H   0  0  0  0  0  0
    1.7119    1.4276   -1.7183 H   0  0  0  0  0  0
    1.7774   -1.1193    2.2348 H   0  0  0  0  0  0
    0.3055   -1.7814    1.4947 H   0  0  0  0  0  0
    1.6648   -3.6086    2.5603 H   0  0  0  0  0  0
    3.0504   -3.1749    1.5343 H   0  0  0  0  0  0
    1.5784   -3.8347    0.7998 H   0  0  0  0  0  0
  1  2  1  0  0  0
  1  9  1  0  0  0
  1 10  1  0  0  0
  1 11  1  0  0  0
  2  3  1  0  0  0
  2 12  1  0  0  0
  2 13  1  0  0  0
  3  4  1  0  0  0
  4  5  1  0  0  0
  4  6  1  0  0  0
  4 14  1  0  0  0
  5 15  1  0  0  0
  5 16  1  0  0  0
  5 17  1  0  0  0
  6  7  1  0  0  0
  7  8  1  0  0  0
  7 18  1  0  0  0
  7 19  1  0  0  0
  8 20  1  0  0  0
  8 21  1  0  0  0
  8 22  1  0  0  0
M  END
>  <i_m_Spin_multiplicity> (1)
1

>  <s_j_Task> (1)
Single Point

>  <s_j_QM_Method> (1)
DFT(b3lyp-d3)

>  <s_j_QM_Basis> (1)
cc-pvtz(-f)

>  <i_j_Number_of_canonical_orbitals> (1)
309

>  <i_j_Geometry_convergence_category> (1)
0

>  <r_j_Gas_Phase_Energy> (1)
-387.663755610759

>  <r_j_Final_Energy> (1)
-387.663755610759

>  <r_j_HOMO> (1)
-0.261185174955529

>  <r_j_LUMO> (1)
0.0224586539134111

>  <r_j_Polarizability> (1)
84.9086999375677

>  <r_j_QM_Dipole_(debye)> (1)
1.72506980543895

>  <r_j_QM_Dipole_X_(debye)> (1)
-0.233262306774241

>  <r_j_QM_Dipole_Y_(debye)> (1)
1.38393004129573

>  <r_j_QM_Dipole_Z_(debye)> (1)
1.00309130724712

>  <r_j_Lowest_Frequency_(cm-1)> (1)
75.7894474419131

>  <r_j_Highest_Frequency_(cm-1)> (1)
3086.42172013572

>  <r_j_2nd_Lowest_Frequency_(cm-1)> (1)
109.021975660721

>  <i_j_Num_Negative_Frequencies> (1)
0

>  <r_j_Zero_Point_Energy_(kcal/mol)> (1)
123.644020725377

>  <r_j_Entropy_(cal/mol/K)_298.15K_1.00E+00atm> (1)
95.3729763151457

>  <r_j_Enthalpy_(kcal/mol)_298.15K_1.00E+00atm> (1)
6.77506348496671

>  <r_j_Free_Energy_(kcal/mol)_298.15K_1.00E+00atm> (1)
-21.660389403394

>  <r_j_Internal_Energy_(kcal/mol)_298.15K_1.00E+00atm> (1)
6.18257789613943

>  <r_j_Heat_Capacity_(cal/mol/K)_298.15K_1.00E+00atm> (1)
35.8523606789172

>  <r_j_ln(Q)_298.15K_1.00E+00atm> (1)
36.5585084462005

>  <r_j_Total_Internal_Energy_(au)_298.15K_1.00E+00atm> (1)
-387.456863755212

>  <r_j_Total_Enthalpy_(au)_298.15K_1.00E+00atm> (1)
-387.45591956932

>  <r_j_Total_Free_Energy_(au)_298.15K_1.00E+00atm> (1)
-387.501234348216

>  <r_lp_tautomer_probability> (1)
1

>  <r_epik_Ionization_Penalty> (1)
  0.0000

>  <r_epik_Ionization_Penalty_Charging> (1)
  0.0000

>  <r_epik_Ionization_Penalty_Neutral> (1)
  0.0000

>  <r_epik_State_Penalty> (1)
  0.0000

>  <r_epik_Charging_Adjusted_Penalty> (1)
0

>  <i_epik_Tot_Q> (1)
0

>  <i_epik_Tot_abs_Q> (1)
0

>  <s_lp_Force_Field> (1)
S-OPLS

>  <r_lp_Energy> (1)
1.15808

>  <b_lp_Chiralities_Consistent> (1)
1

>  <s_epik_Chemistry_Notes> (1)
This compound contains an acetal/aminal-like group ( X-CH(R)-Y where X, Y are N, S, or O) that may be acid/base labile, releasing an aldehyde.

$$$$
