7792_Dimethyloctanol
                    3D
 Schrodinger Suite 2021-3.
 33 32  0  0  1  0            999 V2000
   -2.5856    2.9571   -0.1370 C   0  0  0  0  0  0
   -2.1452    1.4973    0.0445 C   0  0  0  0  0  0
   -2.8250    0.8832    1.2775 C   0  0  0  0  0  0
   -0.6090    1.4048    0.1137 C   0  0  0  0  0  0
   -0.0425   -0.0204    0.1434 C   0  0  0  0  0  0
    1.4916   -0.0455    0.1108 C   0  0  0  0  0  0
    2.1203   -1.4505    0.0119 C   0  0  0  0  0  0
    1.7175   -2.3434    1.1961 C   0  0  0  0  0  0
    3.6566   -1.3881   -0.0884 C   0  0  0  0  0  0
    4.1979   -0.6840   -1.3279 C   0  0  0  0  0  0
    5.6120   -0.8668   -1.3362 O   0  0  0  0  0  0
   -2.2799    3.5640    0.7245 H   0  0  0  0  0  0
   -3.6743    3.0370   -0.2289 H   0  0  0  0  0  0
   -2.1385    3.4025   -1.0326 H   0  0  0  0  0  0
   -2.4730    0.9316   -0.8411 H   0  0  0  0  0  0
   -2.4926    1.3892    2.1927 H   0  0  0  0  0  0
   -2.6013   -0.1823    1.3847 H   0  0  0  0  0  0
   -3.9138    0.9875    1.2175 H   0  0  0  0  0  0
   -0.1878    1.9343   -0.7527 H   0  0  0  0  0  0
   -0.2597    1.9536    1.0014 H   0  0  0  0  0  0
   -0.4012   -0.5386    1.0390 H   0  0  0  0  0  0
   -0.4333   -0.5848   -0.7162 H   0  0  0  0  0  0
    1.8243    0.5609   -0.7413 H   0  0  0  0  0  0
    1.8833    0.4549    1.0092 H   0  0  0  0  0  0
    1.7417   -1.9209   -0.9095 H   0  0  0  0  0  0
    2.0260   -1.8883    2.1454 H   0  0  0  0  0  0
    2.1972   -3.3255    1.1274 H   0  0  0  0  0  0
    0.6369   -2.5064    1.2393 H   0  0  0  0  0  0
    4.0688   -0.8974    0.8033 H   0  0  0  0  0  0
    4.0620   -2.4073   -0.0954 H   0  0  0  0  0  0
    3.7316   -1.1167   -2.2303 H   0  0  0  0  0  0
    3.9411    0.3865   -1.3115 H   0  0  0  0  0  0
    5.9698   -0.3948   -2.0985 H   0  0  0  0  0  0
  1  2  1  0  0  0
  1 12  1  0  0  0
  1 13  1  0  0  0
  1 14  1  0  0  0
  2  3  1  0  0  0
  2  4  1  0  0  0
  2 15  1  0  0  0
  3 16  1  0  0  0
  3 17  1  0  0  0
  3 18  1  0  0  0
  4  5  1  0  0  0
  4 19  1  0  0  0
  4 20  1  0  0  0
  5  6  1  0  0  0
  5 21  1  0  0  0
  5 22  1  0  0  0
  6  7  1  0  0  0
  6 23  1  0  0  0
  6 24  1  0  0  0
  7  8  1  0  0  0
  7  9  1  0  0  0
  7 25  1  0  0  0
  8 26  1  0  0  0
  8 27  1  0  0  0
  8 28  1  0  0  0
  9 10  1  0  0  0
  9 29  1  0  0  0
  9 30  1  0  0  0
 10 11  1  0  0  0
 10 31  1  0  0  0
 10 32  1  0  0  0
 11 33  1  0  0  0
M  END
>  <i_m_Spin_multiplicity> (1)
1

>  <s_j_Task> (1)
Single Point

>  <s_j_QM_Method> (1)
DFT(b3lyp-d3)

>  <s_j_QM_Basis> (1)
cc-pvtz(-f)

>  <i_j_Number_of_canonical_orbitals> (1)
449

>  <i_j_Geometry_convergence_category> (1)
0

>  <r_j_Gas_Phase_Energy> (1)
-469.740689029084

>  <r_j_Final_Energy> (1)
-469.740689029084

>  <r_j_HOMO> (1)
-0.270695977859511

>  <r_j_LUMO> (1)
0.0245316759303273

>  <r_j_Polarizability> (1)
127.817313319992

>  <r_j_QM_Dipole_(debye)> (1)
1.53243456097137

>  <r_j_QM_Dipole_X_(debye)> (1)
-0.819146617012406

>  <r_j_QM_Dipole_Y_(debye)> (1)
0.708229848666163

>  <r_j_QM_Dipole_Z_(debye)> (1)
-1.08432697326727

>  <r_j_Lowest_Frequency_(cm-1)> (1)
66.867869489101

>  <r_j_Highest_Frequency_(cm-1)> (1)
3771.62044856364

>  <r_j_2nd_Lowest_Frequency_(cm-1)> (1)
69.2651457323669

>  <i_j_Num_Negative_Frequencies> (1)
0

>  <r_j_Zero_Point_Energy_(kcal/mol)> (1)
192.678533982499

>  <r_j_Entropy_(cal/mol/K)_298.15K_1.00E+00atm> (1)
113.515372636522

>  <r_j_Enthalpy_(kcal/mol)_298.15K_1.00E+00atm> (1)
9.19943297189361

>  <r_j_Free_Energy_(kcal/mol)_298.15K_1.00E+00atm> (1)
-24.6451753796856

>  <r_j_Internal_Energy_(kcal/mol)_298.15K_1.00E+00atm> (1)
8.60694738306633

>  <r_j_Heat_Capacity_(cal/mol/K)_298.15K_1.00E+00atm> (1)
52.1966366194127

>  <r_j_ln(Q)_298.15K_1.00E+00atm> (1)
41.5962444394075

>  <r_j_Total_Internal_Energy_(au)_298.15K_1.00E+00atm> (1)
-469.419920194527

>  <r_j_Total_Enthalpy_(au)_298.15K_1.00E+00atm> (1)
-469.418976008635

>  <r_j_Total_Free_Energy_(au)_298.15K_1.00E+00atm> (1)
-469.472910825509

>  <r_lp_tautomer_probability> (1)
1

>  <r_epik_Ionization_Penalty> (1)
  0.0000

>  <r_epik_Ionization_Penalty_Charging> (1)
  0.0000

>  <r_epik_Ionization_Penalty_Neutral> (1)
  0.0000

>  <r_epik_State_Penalty> (1)
  0.0000

>  <r_epik_Charging_Adjusted_Penalty> (1)
0

>  <i_epik_Tot_Q> (1)
0

>  <i_epik_Tot_abs_Q> (1)
0

>  <s_lp_Force_Field> (1)
S-OPLS

>  <r_lp_Energy> (1)
6.42443

>  <b_lp_Chiralities_Consistent> (1)
1

$$$$
