77929_Methyltriacetoxysilane
                    3D
 Schrodinger Suite 2021-3.
 26 25  0  0  1  0            999 V2000
   -2.0434    0.8220   -0.2580 C   0  0  0  0  0  0
   -0.5983    1.2147   -0.1011 C   0  0  0  0  0  0
   -0.1906    2.3361    0.1064 O   0  0  0  0  0  0
    0.2302    0.1422   -0.2156 O   0  0  0  0  0  0
    1.8994    0.3047   -0.0149 Si  0  0  0  0  0  0
    2.6888    1.4530   -1.2201 C   0  0  0  0  0  0
    2.2450    0.8421    1.5341 O   0  0  0  0  0  0
    2.2182    0.0911    2.6714 C   0  0  0  0  0  0
    1.8441   -1.0585    2.6960 O   0  0  0  0  0  0
    2.7178    0.8770    3.8537 C   0  0  0  0  0  0
    2.3281   -1.3071   -0.2373 O   0  0  0  0  0  0
    3.5396   -1.7583    0.1840 C   0  0  0  0  0  0
    4.4354   -1.0061    0.5017 O   0  0  0  0  0  0
    3.5930   -3.2592    0.2295 C   0  0  0  0  0  0
   -2.3088    0.0964    0.5166 H   0  0  0  0  0  0
   -2.1902    0.3318   -1.2247 H   0  0  0  0  0  0
   -2.6759    1.7056   -0.1804 H   0  0  0  0  0  0
    3.7732    1.4304   -1.0830 H   0  0  0  0  0  0
    2.3204    2.4683   -1.0566 H   0  0  0  0  0  0
    2.4582    1.1546   -2.2472 H   0  0  0  0  0  0
    2.1557    1.8106    3.9447 H   0  0  0  0  0  0
    3.7667    1.1412    3.6874 H   0  0  0  0  0  0
    2.6205    0.2808    4.7603 H   0  0  0  0  0  0
    2.9327   -3.5931    1.0364 H   0  0  0  0  0  0
    4.6130   -3.5896    0.4223 H   0  0  0  0  0  0
    3.2156   -3.6839   -0.7041 H   0  0  0  0  0  0
  1  2  1  0  0  0
  1 15  1  0  0  0
  1 16  1  0  0  0
  1 17  1  0  0  0
  2  3  2  0  0  0
  2  4  1  0  0  0
  4  5  1  0  0  0
  5  6  1  0  0  0
  5  7  1  0  0  0
  5 11  1  0  0  0
  6 18  1  0  0  0
  6 19  1  0  0  0
  6 20  1  0  0  0
  7  8  1  0  0  0
  8  9  2  0  0  0
  8 10  1  0  0  0
 10 21  1  0  0  0
 10 22  1  0  0  0
 10 23  1  0  0  0
 11 12  1  0  0  0
 12 13  2  0  0  0
 12 14  1  0  0  0
 14 24  1  0  0  0
 14 25  1  0  0  0
 14 26  1  0  0  0
M  END
>  <i_m_Spin_multiplicity> (1)
1

>  <s_j_Task> (1)
Single Point

>  <s_j_QM_Method> (1)
DFT(b3lyp-d3)

>  <s_j_QM_Basis> (1)
cc-pvtz(-f)

>  <i_j_Number_of_canonical_orbitals> (1)
434

>  <i_j_Geometry_convergence_category> (1)
3

>  <r_j_Gas_Phase_Energy> (1)
-1015.32959255866

>  <r_j_Final_Energy> (1)
-1015.32959255866

>  <r_j_HOMO> (1)
-0.285413298067775

>  <r_j_LUMO> (1)
-0.0276636151729144

>  <r_j_Polarizability> (1)
117.869769182247

>  <r_j_QM_Dipole_(debye)> (1)
1.50019316889586

>  <r_j_QM_Dipole_X_(debye)> (1)
-1.08929532999621

>  <r_j_QM_Dipole_Y_(debye)> (1)
-0.625206245382647

>  <r_j_QM_Dipole_Z_(debye)> (1)
-0.820446450894141

>  <r_j_Lowest_Frequency_(cm-1)> (1)
46.292201578046

>  <r_j_Highest_Frequency_(cm-1)> (1)
3120.07709982235

>  <r_j_2nd_Lowest_Frequency_(cm-1)> (1)
60.3853337027885

>  <i_j_Num_Negative_Frequencies> (1)
0

>  <r_j_Zero_Point_Energy_(kcal/mol)> (1)
121.713143307168

>  <r_j_Entropy_(cal/mol/K)_298.15K_1.00E+00atm> (1)
127.899777644198

>  <r_j_Enthalpy_(kcal/mol)_298.15K_1.00E+00atm> (1)
11.0006657632049

>  <r_j_Free_Energy_(kcal/mol)_298.15K_1.00E+00atm> (1)
-27.1326529414127

>  <r_j_Internal_Energy_(kcal/mol)_298.15K_1.00E+00atm> (1)
10.4081801743776

>  <r_j_Heat_Capacity_(cal/mol/K)_298.15K_1.00E+00atm> (1)
58.871115364975

>  <r_j_ln(Q)_298.15K_1.00E+00atm> (1)
45.7946209208519

>  <r_j_Total_Internal_Energy_(au)_298.15K_1.00E+00atm> (1)
-1015.11904382626

>  <r_j_Total_Enthalpy_(au)_298.15K_1.00E+00atm> (1)
-1015.11809964036

>  <r_j_Total_Free_Energy_(au)_298.15K_1.00E+00atm> (1)
-1015.17886895227

>  <r_lp_tautomer_probability> (1)
1

>  <r_epik_Ionization_Penalty> (1)
  0.0000

>  <r_epik_Ionization_Penalty_Charging> (1)
  0.0000

>  <r_epik_Ionization_Penalty_Neutral> (1)
  0.0000

>  <r_epik_State_Penalty> (1)
  0.0000

>  <r_epik_Charging_Adjusted_Penalty> (1)
0

>  <i_epik_Tot_Q> (1)
0

>  <i_epik_Tot_abs_Q> (1)
0

>  <s_lp_Force_Field> (1)
S-OPLS

>  <r_lp_Energy> (1)
-22.273052

>  <b_lp_Chiralities_Consistent> (1)
1

$$$$
