7810_1-Chloro-4-Methyl-Benzene
                    3D
 Schrodinger Suite 2021-3.
 15 15  0  0  1  0            999 V2000
   -0.0323   -0.0013    0.0000 C   0  0  0  0  0  0
    1.4781    0.0121    0.0000 C   0  0  0  0  0  0
    2.1982    1.2112    0.0000 C   0  0  0  0  0  0
    3.5938    1.2224    0.0000 C   0  0  0  0  0  0
    4.2800    0.0118    0.0000 C   0  0  0  0  0  0
    3.5922   -1.2012    0.0000 C   0  0  0  0  0  0
    2.1996   -1.1898    0.0000 C   0  0  0  0  0  0
    6.0420    0.0098    0.0000 Cl  0  0  0  0  0  0
   -0.4437    1.0117    0.0001 H   0  0  0  0  0  0
   -0.4234   -0.5220    0.8815 H   0  0  0  0  0  0
   -0.4234   -0.5219   -0.8815 H   0  0  0  0  0  0
    1.6639    2.1576    0.0000 H   0  0  0  0  0  0
    4.1421    2.1579    0.0000 H   0  0  0  0  0  0
    4.1415   -2.1362    0.0000 H   0  0  0  0  0  0
    1.6641   -2.1360    0.0000 H   0  0  0  0  0  0
  1  2  1  0  0  0
  1  9  1  0  0  0
  1 10  1  0  0  0
  1 11  1  0  0  0
  2  7  1  0  0  0
  2  3  2  0  0  0
  3  4  1  0  0  0
  3 12  1  0  0  0
  4  5  2  0  0  0
  4 13  1  0  0  0
  5  6  1  0  0  0
  5  8  1  0  0  0
  6  7  2  0  0  0
  6 14  1  0  0  0
  7 15  1  0  0  0
M  END
> <i_m_Spin_multiplicity>
1

> <s_j_Task>
Single Point

> <s_j_QM_Method>
DFT(b3lyp-d3)

> <s_j_QM_Basis>
cc-pvtz(-f)

> <i_j_Number_of_canonical_orbitals>
246

> <i_j_Geometry_convergence_category>
0

> <r_j_Gas_Phase_Energy>
-731.294260309991

> <r_j_Final_Energy>
-731.294260309991

> <r_j_HOMO>
-0.244208435176013

> <r_j_LUMO>
-0.0266163769256616

> <r_j_Polarizability>
90.3817772712891

> <r_j_QM_Dipole_(debye)>
2.25689838251377

> <r_j_QM_Dipole_X_(debye)>
-2.25650557438685

> <r_j_QM_Dipole_Y_(debye)>
-0.0421058383975609

> <r_j_QM_Dipole_Z_(debye)>
1.12774721922172e-05

> <r_j_Lowest_Frequency_(cm-1)>
125.700467755381

> <r_j_Highest_Frequency_(cm-1)>
3160.26748111422

> <r_j_2nd_Lowest_Frequency_(cm-1)>
184.620055062925

> <i_j_Num_Negative_Frequencies>
0

> <r_j_Zero_Point_Energy_(kcal/mol)>
74.0008153662701

> <r_j_Entropy_(cal/mol/K)_298.15K_1.00E+00atm>
83.3139259694381

> <r_j_Enthalpy_(kcal/mol)_298.15K_1.00E+00atm>
5.00077308989735

> <r_j_Free_Energy_(kcal/mol)_298.15K_1.00E+00atm>
-19.8392739378906

> <r_j_Internal_Energy_(kcal/mol)_298.15K_1.00E+00atm>
4.40828750107007

> <r_j_Heat_Capacity_(cal/mol/K)_298.15K_1.00E+00atm>
26.7400968033511

> <r_j_ln(Q)_298.15K_1.00E+00atm>
33.4848210859595

> <r_j_Total_Internal_Energy_(au)_298.15K_1.00E+00atm>
-731.169307450129

> <r_j_Total_Enthalpy_(au)_298.15K_1.00E+00atm>
-731.168363264237

> <r_j_Total_Free_Energy_(au)_298.15K_1.00E+00atm>
-731.207948399147

> <r_lp_tautomer_probability>
1

> <r_epik_Ionization_Penalty>
  0.0000

> <r_epik_Ionization_Penalty_Charging>
  0.0000

> <r_epik_Ionization_Penalty_Neutral>
  0.0000

> <r_epik_State_Penalty>
  0.0000

> <r_epik_Charging_Adjusted_Penalty>
0

> <i_epik_Tot_Q>
0

> <i_epik_Tot_abs_Q>
0

> <s_lp_Force_Field>
S-OPLS

> <r_lp_Energy>
5.65119

> <b_lp_Chiralities_Consistent>
1

$$$$
