7820_Dimethyl succinate
                    3D
 Schrodinger Suite 2021-3.
 20 19  0  0  1  0            999 V2000
   -1.1215    3.2368   -1.2212 C   0  0  0  0  0  0
   -0.5963    1.9125   -1.0237 O   0  0  0  0  0  0
   -0.5144    1.5135    0.2690 C   0  0  0  0  0  0
   -0.8533    2.2085    1.2010 O   0  0  0  0  0  0
    0.0264    0.1040    0.3752 C   0  0  0  0  0  0
    1.3359   -0.1016   -0.3933 C   0  0  0  0  0  0
    1.7662   -1.5541   -0.3808 C   0  0  0  0  0  0
    1.0712   -2.4894   -0.0465 O   0  0  0  0  0  0
    3.0374   -1.6841   -0.8167 O   0  0  0  0  0  0
    3.5284   -3.0359   -0.8754 C   0  0  0  0  0  0
   -1.1174    3.3993   -2.2990 H   0  0  0  0  0  0
   -0.4959    3.9784   -0.7174 H   0  0  0  0  0  0
   -2.1377    3.3105   -0.8248 H   0  0  0  0  0  0
    0.1511   -0.1202    1.4359 H   0  0  0  0  0  0
   -0.7263   -0.5882   -0.0172 H   0  0  0  0  0  0
    1.2169    0.2045   -1.4385 H   0  0  0  0  0  0
    2.1467    0.5110    0.0140 H   0  0  0  0  0  0
    4.5543   -2.9618   -1.2359 H   0  0  0  0  0  0
    2.9225   -3.6363   -1.5592 H   0  0  0  0  0  0
    3.5004   -3.4983    0.1147 H   0  0  0  0  0  0
  1  2  1  0  0  0
  1 11  1  0  0  0
  1 12  1  0  0  0
  1 13  1  0  0  0
  2  3  1  0  0  0
  3  4  2  0  0  0
  3  5  1  0  0  0
  5  6  1  0  0  0
  5 14  1  0  0  0
  5 15  1  0  0  0
  6  7  1  0  0  0
  6 16  1  0  0  0
  6 17  1  0  0  0
  7  8  2  0  0  0
  7  9  1  0  0  0
  9 10  1  0  0  0
 10 18  1  0  0  0
 10 19  1  0  0  0
 10 20  1  0  0  0
M  END
>  <i_m_Spin_multiplicity> (1)
1

>  <s_j_Task> (1)
Single Point

>  <s_j_QM_Method> (1)
DFT(b3lyp-d3)

>  <s_j_QM_Basis> (1)
cc-pvtz(-f)

>  <i_j_Number_of_canonical_orbitals> (1)
319

>  <i_j_Geometry_convergence_category> (1)
0

>  <r_j_Gas_Phase_Energy> (1)
-535.781441812061

>  <r_j_Final_Energy> (1)
-535.781441812061

>  <r_j_HOMO> (1)
-0.275310807085675

>  <r_j_LUMO> (1)
-0.0110895555494059

>  <r_j_Polarizability> (1)
84.0378099701523

>  <r_j_QM_Dipole_(debye)> (1)
2.97807743343089

>  <r_j_QM_Dipole_X_(debye)> (1)
1.75074110611252

>  <r_j_QM_Dipole_Y_(debye)> (1)
0.257202267917788

>  <r_j_QM_Dipole_Z_(debye)> (1)
-2.39534919630858

>  <r_j_Lowest_Frequency_(cm-1)> (1)
65.2002022022776

>  <r_j_Highest_Frequency_(cm-1)> (1)
3110.61809009229

>  <r_j_2nd_Lowest_Frequency_(cm-1)> (1)
77.6946575118096

>  <i_j_Num_Negative_Frequencies> (1)
0

>  <r_j_Zero_Point_Energy_(kcal/mol)> (1)
101.49673801634

>  <r_j_Entropy_(cal/mol/K)_298.15K_1.00E+00atm> (1)
101.703027777239

>  <r_j_Enthalpy_(kcal/mol)_298.15K_1.00E+00atm> (1)
7.36304241051179

>  <r_j_Free_Energy_(kcal/mol)_298.15K_1.00E+00atm> (1)
-22.9597153212719

>  <r_j_Internal_Energy_(kcal/mol)_298.15K_1.00E+00atm> (1)
6.77055682168452

>  <r_j_Heat_Capacity_(cal/mol/K)_298.15K_1.00E+00atm> (1)
37.8975684753229

>  <r_j_ln(Q)_298.15K_1.00E+00atm> (1)
38.7515169216467

>  <r_j_Total_Internal_Energy_(au)_298.15K_1.00E+00atm> (1)
-535.608906894241

>  <r_j_Total_Enthalpy_(au)_298.15K_1.00E+00atm> (1)
-535.607962708348

>  <r_j_Total_Free_Energy_(au)_298.15K_1.00E+00atm> (1)
-535.656285098976

>  <r_lp_tautomer_probability> (1)
1

>  <r_epik_Ionization_Penalty> (1)
  0.0000

>  <r_epik_Ionization_Penalty_Charging> (1)
  0.0000

>  <r_epik_Ionization_Penalty_Neutral> (1)
  0.0000

>  <r_epik_State_Penalty> (1)
  0.0000

>  <r_epik_Charging_Adjusted_Penalty> (1)
0

>  <i_epik_Tot_Q> (1)
0

>  <i_epik_Tot_abs_Q> (1)
0

>  <s_lp_Force_Field> (1)
S-OPLS

>  <r_lp_Energy> (1)
3.094363

>  <b_lp_Chiralities_Consistent> (1)
1

>  <s_epik_Chemistry_Notes> (1)
This compound has an ester and may undergo hydrolysis at high or low pH.

$$$$
