7824_Hexanoic acid, methyl ester
                    3D
 Schrodinger Suite 2021-3.
 23 22  0  0  1  0            999 V2000
   -2.0605    1.5630    0.0097 C   0  0  0  0  0  0
   -0.5329    1.4726    0.0705 C   0  0  0  0  0  0
   -0.0141    0.0351   -0.0526 C   0  0  0  0  0  0
    1.5136   -0.0592    0.0087 C   0  0  0  0  0  0
    2.0206   -1.5082   -0.1131 C   0  0  0  0  0  0
    3.5304   -1.5914   -0.0744 C   0  0  0  0  0  0
    4.2468   -1.9296   -0.9915 O   0  0  0  0  0  0
    4.0052   -1.2080    1.1365 O   0  0  0  0  0  0
    5.4374   -1.2171    1.2603 C   0  0  0  0  0  0
   -2.4058    2.5979    0.1011 H   0  0  0  0  0  0
   -2.5221    0.9844    0.8181 H   0  0  0  0  0  0
   -2.4413    1.1664   -0.9385 H   0  0  0  0  0  0
   -0.0952    2.0841   -0.7301 H   0  0  0  0  0  0
   -0.1748    1.9056    1.0143 H   0  0  0  0  0  0
   -0.4493   -0.5789    0.7491 H   0  0  0  0  0  0
   -0.3704   -0.4010   -0.9967 H   0  0  0  0  0  0
    1.9512    0.5440   -0.7978 H   0  0  0  0  0  0
    1.8775    0.3664    0.9509 H   0  0  0  0  0  0
    1.6160   -2.1062    0.7122 H   0  0  0  0  0  0
    1.6953   -1.9567   -1.0551 H   0  0  0  0  0  0
    5.6492   -0.8841    2.2765 H   0  0  0  0  0  0
    5.8921   -0.5411    0.5312 H   0  0  0  0  0  0
    5.8325   -2.2232    1.0954 H   0  0  0  0  0  0
  1  2  1  0  0  0
  1 10  1  0  0  0
  1 11  1  0  0  0
  1 12  1  0  0  0
  2  3  1  0  0  0
  2 13  1  0  0  0
  2 14  1  0  0  0
  3  4  1  0  0  0
  3 15  1  0  0  0
  3 16  1  0  0  0
  4  5  1  0  0  0
  4 17  1  0  0  0
  4 18  1  0  0  0
  5  6  1  0  0  0
  5 19  1  0  0  0
  5 20  1  0  0  0
  6  7  2  0  0  0
  6  8  1  0  0  0
  8  9  1  0  0  0
  9 21  1  0  0  0
  9 22  1  0  0  0
  9 23  1  0  0  0
M  END
>  <i_m_Spin_multiplicity> (1)
1

>  <s_j_Task> (1)
Single Point

>  <s_j_QM_Method> (1)
DFT(b3lyp-d3)

>  <s_j_QM_Basis> (1)
cc-pvtz(-f)

>  <i_j_Number_of_canonical_orbitals> (1)
332

>  <i_j_Geometry_convergence_category> (1)
3

>  <r_j_Gas_Phase_Energy> (1)
-425.811483892708

>  <r_j_Final_Energy> (1)
-425.811483892708

>  <r_j_HOMO> (1)
-0.281551510751215

>  <r_j_LUMO> (1)
-0.00467711975114111

>  <r_j_Polarizability> (1)
92.4405762168055

>  <r_j_QM_Dipole_(debye)> (1)
1.99305587182647

>  <r_j_QM_Dipole_X_(debye)> (1)
-0.707271088747756

>  <r_j_QM_Dipole_Y_(debye)> (1)
0.878593055413912

>  <r_j_QM_Dipole_Z_(debye)> (1)
1.64320222681871

>  <r_j_Lowest_Frequency_(cm-1)> (1)
72.7507315070979

>  <r_j_Highest_Frequency_(cm-1)> (1)
3107.02017896437

>  <r_j_2nd_Lowest_Frequency_(cm-1)> (1)
98.2514615073594

>  <i_j_Num_Negative_Frequencies> (1)
0

>  <r_j_Zero_Point_Energy_(kcal/mol)> (1)
127.925012520051

>  <r_j_Entropy_(cal/mol/K)_298.15K_1.00E+00atm> (1)
99.7835965639876

>  <r_j_Enthalpy_(kcal/mol)_298.15K_1.00E+00atm> (1)
7.21333973303687

>  <r_j_Free_Energy_(kcal/mol)_298.15K_1.00E+00atm> (1)
-22.537139582516

>  <r_j_Internal_Energy_(kcal/mol)_298.15K_1.00E+00atm> (1)
6.6208541442096

>  <r_j_Heat_Capacity_(cal/mol/K)_298.15K_1.00E+00atm> (1)
37.94432926452

>  <r_j_ln(Q)_298.15K_1.00E+00atm> (1)
38.0382915762128

>  <r_j_Total_Internal_Energy_(au)_298.15K_1.00E+00atm> (1)
-425.597071404775

>  <r_j_Total_Enthalpy_(au)_298.15K_1.00E+00atm> (1)
-425.596127218882

>  <r_j_Total_Free_Energy_(au)_298.15K_1.00E+00atm> (1)
-425.643537625797

>  <r_lp_tautomer_probability> (1)
1

>  <r_epik_Ionization_Penalty> (1)
  0.0000

>  <r_epik_Ionization_Penalty_Charging> (1)
  0.0000

>  <r_epik_Ionization_Penalty_Neutral> (1)
  0.0000

>  <r_epik_State_Penalty> (1)
  0.0000

>  <r_epik_Charging_Adjusted_Penalty> (1)
0

>  <i_epik_Tot_Q> (1)
0

>  <i_epik_Tot_abs_Q> (1)
0

>  <s_lp_Force_Field> (1)
S-OPLS

>  <r_lp_Energy> (1)
2.770756

>  <b_lp_Chiralities_Consistent> (1)
1

>  <s_epik_Chemistry_Notes> (1)
This compound has an ester and may undergo hydrolysis at high or low pH.

$$$$
