78335_2-methyl-1-octene
                    3D
 Schrodinger Suite 2021-3.
 27 26  0  0  1  0            999 V2000
   -0.7277    3.7675   -1.1442 C   0  0  0  0  0  0
   -0.0827    2.3801   -1.2167 C   0  0  0  0  0  0
   -0.4953    1.4725   -0.0496 C   0  0  0  0  0  0
    0.0575    0.0414   -0.1296 C   0  0  0  0  0  0
    1.5850   -0.0546   -0.0235 C   0  0  0  0  0  0
    2.0877   -1.5112   -0.0505 C   0  0  0  0  0  0
    3.5947   -1.6372    0.0095 C   0  0  0  0  0  0
    4.3056   -2.0595   -1.0410 C   0  0  0  0  0  0
    4.2504   -1.2554    1.3144 C   0  0  0  0  0  0
   -0.4202    4.3990   -1.9841 H   0  0  0  0  0  0
   -0.4474    4.2839   -0.2188 H   0  0  0  0  0  0
   -1.8214    3.6960   -1.1626 H   0  0  0  0  0  0
   -0.3573    1.8943   -2.1633 H   0  0  0  0  0  0
    1.0085    2.4895   -1.2365 H   0  0  0  0  0  0
   -0.1775    1.9336    0.8968 H   0  0  0  0  0  0
   -1.5923    1.4275   -0.0102 H   0  0  0  0  0  0
   -0.3904   -0.5601    0.6731 H   0  0  0  0  0  0
   -0.2690   -0.4205   -1.0724 H   0  0  0  0  0  0
    2.0595    0.4914   -0.8474 H   0  0  0  0  0  0
    1.9107    0.4381    0.9022 H   0  0  0  0  0  0
    1.6422   -2.0524    0.7977 H   0  0  0  0  0  0
    1.7146   -1.9965   -0.9605 H   0  0  0  0  0  0
    3.8288   -2.3374   -1.9770 H   0  0  0  0  0  0
    5.3885   -2.1411   -1.0039 H   0  0  0  0  0  0
    3.8413   -1.8483    2.1428 H   0  0  0  0  0  0
    4.0652   -0.2034    1.5633 H   0  0  0  0  0  0
    5.3325   -1.4086    1.2860 H   0  0  0  0  0  0
  1  2  1  0  0  0
  1 10  1  0  0  0
  1 11  1  0  0  0
  1 12  1  0  0  0
  2  3  1  0  0  0
  2 13  1  0  0  0
  2 14  1  0  0  0
  3  4  1  0  0  0
  3 15  1  0  0  0
  3 16  1  0  0  0
  4  5  1  0  0  0
  4 17  1  0  0  0
  4 18  1  0  0  0
  5  6  1  0  0  0
  5 19  1  0  0  0
  5 20  1  0  0  0
  6  7  1  0  0  0
  6 21  1  0  0  0
  6 22  1  0  0  0
  7  8  2  0  0  0
  7  9  1  0  0  0
  8 23  1  0  0  0
  8 24  1  0  0  0
  9 25  1  0  0  0
  9 26  1  0  0  0
  9 27  1  0  0  0
M  END
>  <i_m_Spin_multiplicity> (1)
1

>  <s_j_Task> (1)
Single Point

>  <s_j_QM_Method> (1)
DFT(b3lyp-d3)

>  <s_j_QM_Basis> (1)
cc-pvtz(-f)

>  <i_j_Number_of_canonical_orbitals> (1)
365

>  <i_j_Geometry_convergence_category> (1)
1

>  <r_j_Gas_Phase_Energy> (1)
-353.936130575292

>  <r_j_Final_Energy> (1)
-353.936130575292

>  <r_j_HOMO> (1)
-0.253968547000082

>  <r_j_LUMO> (1)
0.00490586679635265

>  <r_j_Polarizability> (1)
110.601439597769

>  <r_j_QM_Dipole_(debye)> (1)
0.542425452026047

>  <r_j_QM_Dipole_X_(debye)> (1)
-0.316428414743746

>  <r_j_QM_Dipole_Y_(debye)> (1)
0.240126844214415

>  <r_j_QM_Dipole_Z_(debye)> (1)
0.369374509185526

>  <r_j_Lowest_Frequency_(cm-1)> (1)
74.051828599665

>  <r_j_Highest_Frequency_(cm-1)> (1)
3165.8732453762

>  <r_j_2nd_Lowest_Frequency_(cm-1)> (1)
84.340660775624

>  <i_j_Num_Negative_Frequencies> (1)
0

>  <r_j_Zero_Point_Energy_(kcal/mol)> (1)
157.087749503792

>  <r_j_Entropy_(cal/mol/K)_298.15K_1.00E+00atm> (1)
101.154058096351

>  <r_j_Enthalpy_(kcal/mol)_298.15K_1.00E+00atm> (1)
7.50015924779134

>  <r_j_Free_Energy_(kcal/mol)_298.15K_1.00E+00atm> (1)
-22.6589231736358

>  <r_j_Internal_Energy_(kcal/mol)_298.15K_1.00E+00atm> (1)
6.90767365896406

>  <r_j_Heat_Capacity_(cal/mol/K)_298.15K_1.00E+00atm> (1)
41.5190550036801

>  <r_j_ln(Q)_298.15K_1.00E+00atm> (1)
38.2438385016002

>  <r_j_Total_Internal_Energy_(au)_298.15K_1.00E+00atm> (1)
-353.674787231481

>  <r_j_Total_Enthalpy_(au)_298.15K_1.00E+00atm> (1)
-353.673843045589

>  <r_j_Total_Free_Energy_(au)_298.15K_1.00E+00atm> (1)
-353.721904603005

>  <r_lp_tautomer_probability> (1)
1

>  <r_epik_Ionization_Penalty> (1)
  0.0000

>  <r_epik_Ionization_Penalty_Charging> (1)
  0.0000

>  <r_epik_Ionization_Penalty_Neutral> (1)
  0.0000

>  <r_epik_State_Penalty> (1)
  0.0000

>  <r_epik_Charging_Adjusted_Penalty> (1)
0

>  <i_epik_Tot_Q> (1)
0

>  <i_epik_Tot_abs_Q> (1)
0

>  <s_lp_Force_Field> (1)
S-OPLS

>  <r_lp_Energy> (1)
-0.634072

>  <b_lp_Chiralities_Consistent> (1)
1

$$$$
