7835_Epichlorohydrin
                    3D
 Schrodinger Suite 2021-3.
 10 10  0  0  1  0            999 V2000
   -0.7699    0.4422   -1.2206 C   0  0  0  0  0  0
   -0.0232    0.1062    0.0034 C   0  0  0  0  0  0
   -0.6359    1.3867   -0.1514 O   0  0  0  0  0  0
    1.4779    0.0761   -0.0151 C   0  0  0  0  0  0
    2.1655    0.5114    1.6113 Cl  0  0  0  0  0  0
   -1.7676    0.0293   -1.3694 H   0  0  0  0  0  0
   -0.2278    0.6878   -2.1346 H   0  0  0  0  0  0
   -0.4920   -0.5401    0.7469 H   0  0  0  0  0  0
    1.8494   -0.9230   -0.2531 H   0  0  0  0  0  0
    1.8690    0.8008   -0.7308 H   0  0  0  0  0  0
  1  3  1  0  0  0
  1  2  1  0  0  0
  1  6  1  0  0  0
  1  7  1  0  0  0
  2  3  1  0  0  0
  2  4  1  0  0  0
  2  8  1  0  0  0
  4  5  1  0  0  0
  4  9  1  0  0  0
  4 10  1  0  0  0
M  END
>  <i_m_Spin_multiplicity> (1)
1

>  <s_j_Task> (1)
Single Point

>  <s_j_QM_Method> (1)
DFT(b3lyp-d3)

>  <s_j_QM_Basis> (1)
cc-pvtz(-f)

>  <i_j_Number_of_canonical_orbitals> (1)
164

>  <i_j_Geometry_convergence_category> (1)
0

>  <r_j_Gas_Phase_Energy> (1)
-652.811145489844

>  <r_j_Final_Energy> (1)
-652.811145489844

>  <r_j_HOMO> (1)
-0.284211712257683

>  <r_j_LUMO> (1)
0.00177559575481189

>  <r_j_Polarizability> (1)
49.6455036387875

>  <r_j_QM_Dipole_(debye)> (1)
3.26083143415241

>  <r_j_QM_Dipole_X_(debye)> (1)
-0.517741987820835

>  <r_j_QM_Dipole_Y_(debye)> (1)
-2.06924566179058

>  <r_j_QM_Dipole_Z_(debye)> (1)
-2.46641182026941

>  <r_j_Lowest_Frequency_(cm-1)> (1)
112.104739360171

>  <r_j_Highest_Frequency_(cm-1)> (1)
3117.05705214922

>  <r_j_2nd_Lowest_Frequency_(cm-1)> (1)
221.410255154417

>  <i_j_Num_Negative_Frequencies> (1)
0

>  <r_j_Zero_Point_Energy_(kcal/mol)> (1)
47.9973038700232

>  <r_j_Entropy_(cal/mol/K)_298.15K_1.00E+00atm> (1)
73.9877285613639

>  <r_j_Enthalpy_(kcal/mol)_298.15K_1.00E+00atm> (1)
3.8260931837447

>  <r_j_Free_Energy_(kcal/mol)_298.15K_1.00E+00atm> (1)
-18.2333480868259

>  <r_j_Internal_Energy_(kcal/mol)_298.15K_1.00E+00atm> (1)
3.23360759491743

>  <r_j_Heat_Capacity_(cal/mol/K)_298.15K_1.00E+00atm> (1)
17.2417913716254

>  <r_j_ln(Q)_298.15K_1.00E+00atm> (1)
30.7743317823406

>  <r_j_Total_Internal_Energy_(au)_298.15K_1.00E+00atm> (1)
-652.729503835153

>  <r_j_Total_Enthalpy_(au)_298.15K_1.00E+00atm> (1)
-652.728559649261

>  <r_j_Total_Free_Energy_(au)_298.15K_1.00E+00atm> (1)
-652.763713606811

>  <r_lp_tautomer_probability> (1)
1

>  <r_epik_Ionization_Penalty> (1)
  0.0000

>  <r_epik_Ionization_Penalty_Charging> (1)
  0.0000

>  <r_epik_Ionization_Penalty_Neutral> (1)
  0.0000

>  <r_epik_State_Penalty> (1)
  0.0000

>  <r_epik_Charging_Adjusted_Penalty> (1)
0

>  <i_epik_Tot_Q> (1)
0

>  <i_epik_Tot_abs_Q> (1)
0

>  <s_lp_Force_Field> (1)
S-OPLS

>  <r_lp_Energy> (1)
3.81291

>  <b_lp_Chiralities_Consistent> (1)
1

$$$$
