7845_1,3-butadiene
                    3D
 Schrodinger Suite 2021-3.
 10  9  0  0  1  0            999 V2000
   -0.6947    1.1561    0.0000 C   0  0  0  0  0  0
    0.0225    0.0244    0.0000 C   0  0  0  0  0  0
    1.4775   -0.0245    0.0000 C   0  0  0  0  0  0
    2.1947   -1.1562    0.0000 C   0  0  0  0  0  0
   -0.2136    2.1310    0.0000 H   0  0  0  0  0  0
   -1.7797    1.1469    0.0000 H   0  0  0  0  0  0
   -0.4928   -0.9362    0.0000 H   0  0  0  0  0  0
    1.9928    0.9362    0.0000 H   0  0  0  0  0  0
    1.7135   -2.1310    0.0000 H   0  0  0  0  0  0
    3.2797   -1.1469    0.0000 H   0  0  0  0  0  0
  1  2  2  0  0  0
  1  5  1  0  0  0
  1  6  1  0  0  0
  2  3  1  0  0  0
  2  7  1  0  0  0
  3  4  2  0  0  0
  3  8  1  0  0  0
  4  9  1  0  0  0
  4 10  1  0  0  0
M  END
>  <i_m_Spin_multiplicity> (1)
1

>  <s_j_Task> (1)
Single Point

>  <s_j_QM_Method> (1)
DFT(b3lyp-d3)

>  <s_j_QM_Basis> (1)
cc-pvtz(-f)

>  <i_j_Number_of_canonical_orbitals> (1)
144

>  <i_j_Geometry_convergence_category> (1)
0

>  <r_j_Gas_Phase_Energy> (1)
-156.053825105845

>  <r_j_Final_Energy> (1)
-156.053825105845

>  <r_j_HOMO> (1)
-0.240552053158568

>  <r_j_LUMO> (1)
-0.03816105753001

>  <r_j_Polarizability> (1)
51.5611321976734

>  <r_j_QM_Dipole_(debye)> (1)
7.0828790801478e-05

>  <r_j_QM_Dipole_X_(debye)> (1)
-1.02008366691266e-05

>  <r_j_QM_Dipole_Y_(debye)> (1)
-7.00838667065419e-05

>  <r_j_QM_Dipole_Z_(debye)> (1)
9.5507335268579e-07

>  <r_j_Lowest_Frequency_(cm-1)> (1)
202.990772027868

>  <r_j_Highest_Frequency_(cm-1)> (1)
3182.14940887769

>  <r_j_2nd_Lowest_Frequency_(cm-1)> (1)
332.220655433925

>  <i_j_Num_Negative_Frequencies> (1)
0

>  <r_j_Zero_Point_Energy_(kcal/mol)> (1)
53.202318686367

>  <r_j_Entropy_(cal/mol/K)_298.15K_1.00E+00atm> (1)
65.4704512591856

>  <r_j_Enthalpy_(kcal/mol)_298.15K_1.00E+00atm> (1)
3.42762276684063

>  <r_j_Free_Energy_(kcal/mol)_298.15K_1.00E+00atm> (1)
-16.0923922760855

>  <r_j_Internal_Energy_(kcal/mol)_298.15K_1.00E+00atm> (1)
2.83513717801335

>  <r_j_Heat_Capacity_(cal/mol/K)_298.15K_1.00E+00atm> (1)
15.4332744147154

>  <r_j_ln(Q)_298.15K_1.00E+00atm> (1)
27.1608163633781

>  <r_j_Total_Internal_Energy_(au)_298.15K_1.00E+00atm> (1)
-155.96452373504

>  <r_j_Total_Enthalpy_(au)_298.15K_1.00E+00atm> (1)
-155.963579549148

>  <r_j_Total_Free_Energy_(au)_298.15K_1.00E+00atm> (1)
-155.994686673384

>  <r_lp_tautomer_probability> (1)
1

>  <r_epik_Ionization_Penalty> (1)
  0.0000

>  <r_epik_Ionization_Penalty_Charging> (1)
  0.0000

>  <r_epik_Ionization_Penalty_Neutral> (1)
  0.0000

>  <r_epik_State_Penalty> (1)
  0.0000

>  <r_epik_Charging_Adjusted_Penalty> (1)
0

>  <i_epik_Tot_Q> (1)
0

>  <i_epik_Tot_abs_Q> (1)
0

>  <s_lp_Force_Field> (1)
S-OPLS

>  <r_lp_Energy> (1)
-0.024361

>  <b_lp_Chiralities_Consistent> (1)
1

$$$$
