7852_1-Propanamine
                    3D
 Schrodinger Suite 2021-3.
 14 13  0  0  1  0            999 V2000
   -0.5493    1.4641    0.0000 C   0  0  0  0  0  0
   -0.0177    0.0240   -0.0001 C   0  0  0  0  0  0
    1.5058    0.0158    0.0000 C   0  0  0  0  0  0
    2.0402   -1.4212    0.0001 N   0  3  1  0  0  0
   -1.6412    1.4577   -0.0002 H   0  0  0  0  0  0
   -0.2171    2.0113   -0.8873 H   0  0  0  0  0  0
   -0.2173    2.0111    0.8876 H   0  0  0  0  0  0
   -0.3892   -0.5099    0.8843 H   0  0  0  0  0  0
   -0.3891   -0.5097   -0.8845 H   0  0  0  0  0  0
    1.9255    0.4922   -0.8892 H   0  0  0  0  0  0
    1.9255    0.4924    0.8890 H   0  0  0  0  0  0
    3.0656   -1.4533   -0.0001 H   0  0  0  0  0  0
    1.7104   -1.9332   -0.8259 H   0  0  0  0  0  0
    1.7107   -1.9331    0.8262 H   0  0  0  0  0  0
  1  2  1  0  0  0
  1  5  1  0  0  0
  1  6  1  0  0  0
  1  7  1  0  0  0
  2  3  1  0  0  0
  2  8  1  0  0  0
  2  9  1  0  0  0
  3  4  1  0  0  0
  3 10  1  0  0  0
  3 11  1  0  0  0
  4 12  1  0  0  0
  4 13  1  0  0  0
  4 14  1  0  0  0
M  END
>  <i_m_Spin_multiplicity> (1)
1

>  <s_j_Task> (1)
Single Point

>  <s_j_QM_Method> (1)
DFT(b3lyp-d3)

>  <s_j_QM_Basis> (1)
cc-pvtz(-f)

>  <i_j_Number_of_canonical_orbitals> (1)
182

>  <i_j_Geometry_convergence_category> (1)
0

>  <r_j_Gas_Phase_Energy> (1)
-174.927185727966

>  <r_j_Final_Energy> (1)
-174.927185727966

>  <r_j_HOMO> (1)
-0.503058880022728

>  <r_j_LUMO> (1)
-0.20235297620904

>  <r_j_Polarizability> (1)
43.7380939263305

>  <r_j_QM_Dipole_(debye)> (1)
6.23868730462757

>  <r_j_QM_Dipole_X_(debye)> (1)
4.23988875623244

>  <r_j_QM_Dipole_Y_(debye)> (1)
-4.57652298359809

>  <r_j_QM_Dipole_Z_(debye)> (1)
-1.71278588096046e-05

>  <r_j_Lowest_Frequency_(cm-1)> (1)
155.274918197295

>  <r_j_Highest_Frequency_(cm-1)> (1)
3435.44471477854

>  <r_j_2nd_Lowest_Frequency_(cm-1)> (1)
273.62506027222

>  <i_j_Num_Negative_Frequencies> (1)
0

>  <r_j_Zero_Point_Energy_(kcal/mol)> (1)
85.3816769134577

>  <r_j_Entropy_(cal/mol/K)_298.15K_1.00E+00atm> (1)
71.8595942769982

>  <r_j_Enthalpy_(kcal/mol)_298.15K_1.00E+00atm> (1)
4.05055777150894

>  <r_j_Free_Energy_(kcal/mol)_298.15K_1.00E+00atm> (1)
-17.3743802621781

>  <r_j_Internal_Energy_(kcal/mol)_298.15K_1.00E+00atm> (1)
3.45807218268166

>  <r_j_Heat_Capacity_(cal/mol/K)_298.15K_1.00E+00atm> (1)
19.0943996740643

>  <r_j_ln(Q)_298.15K_1.00E+00atm> (1)
29.3245617949421

>  <r_j_Total_Internal_Energy_(au)_298.15K_1.00E+00atm> (1)
-174.78561057517

>  <r_j_Total_Enthalpy_(au)_298.15K_1.00E+00atm> (1)
-174.784666389278

>  <r_j_Total_Free_Energy_(au)_298.15K_1.00E+00atm> (1)
-174.818809201551

>  <r_epik_Ionization_Penalty> (1)
  0.0004

>  <r_epik_Ionization_Penalty_Charging> (1)
  0.0004

>  <r_epik_Ionization_Penalty_Neutral> (1)
  0.0000

>  <r_epik_State_Penalty> (1)
  0.0002

>  <r_epik_Charging_Adjusted_Penalty> (1)
0.000611917

>  <i_epik_Tot_Q> (1)
1

>  <i_epik_Tot_abs_Q> (1)
1

>  <s_lp_Force_Field> (1)
S-OPLS

>  <r_lp_Energy> (1)
4.54025

>  <b_lp_Chiralities_Consistent> (1)
1

$$$$
