7855_Acrylonitrile
                    3D
 Schrodinger Suite 2021-3.
  7  6  0  0  1  0            999 V2000
   -0.6773    1.1528    0.0000 C   0  0  0  0  0  0
    0.0294    0.0161    0.0000 C   0  0  0  0  0  0
    1.4602   -0.0101    0.0000 C   0  0  0  0  0  0
    2.6229   -0.0507    0.0000 N   0  0  0  0  0  0
   -0.1974    2.1262    0.0000 H   0  0  0  0  0  0
   -1.7620    1.1275    0.0000 H   0  0  0  0  0  0
   -0.4632   -0.9535    0.0000 H   0  0  0  0  0  0
  1  2  2  0  0  0
  1  5  1  0  0  0
  1  6  1  0  0  0
  2  3  1  0  0  0
  2  7  1  0  0  0
  3  4  3  0  0  0
M  END
>  <i_m_Spin_multiplicity> (1)
1

>  <s_j_Task> (1)
Single Point

>  <s_j_QM_Method> (1)
DFT(b3lyp-d3)

>  <s_j_QM_Basis> (1)
cc-pvtz(-f)

>  <i_j_Number_of_canonical_orbitals> (1)
119

>  <i_j_Geometry_convergence_category> (1)
0

>  <r_j_Gas_Phase_Energy> (1)
-170.893046363994

>  <r_j_Final_Energy> (1)
-170.893046363994

>  <r_j_HOMO> (1)
-0.29722017777901

>  <r_j_LUMO> (1)
-0.0678078985946174

>  <r_j_Polarizability> (1)
38.747715608447

>  <r_j_QM_Dipole_(debye)> (1)
3.96617945438521

>  <r_j_QM_Dipole_X_(debye)> (1)
-3.93427034607583

>  <r_j_QM_Dipole_Y_(debye)> (1)
0.502091932181508

>  <r_j_QM_Dipole_Z_(debye)> (1)
-3.7343831225936e-06

>  <r_j_Lowest_Frequency_(cm-1)> (1)
284.566229912391

>  <r_j_Highest_Frequency_(cm-1)> (1)
3202.90188142924

>  <r_j_2nd_Lowest_Frequency_(cm-1)> (1)
402.334609392483

>  <i_j_Num_Negative_Frequencies> (1)
0

>  <r_j_Zero_Point_Energy_(kcal/mol)> (1)
31.6902078387339

>  <r_j_Entropy_(cal/mol/K)_298.15K_1.00E+00atm> (1)
64.6188889074365

>  <r_j_Enthalpy_(kcal/mol)_298.15K_1.00E+00atm> (1)
3.10923852880214

>  <r_j_Free_Energy_(kcal/mol)_298.15K_1.00E+00atm> (1)
-16.15688319895

>  <r_j_Internal_Energy_(kcal/mol)_298.15K_1.00E+00atm> (1)
2.51675293997486

>  <r_j_Heat_Capacity_(cal/mol/K)_298.15K_1.00E+00atm> (1)
12.7245873994404

>  <r_j_ln(Q)_298.15K_1.00E+00atm> (1)
27.2696644502862

>  <r_j_Total_Internal_Energy_(au)_298.15K_1.00E+00atm> (1)
-170.838534101766

>  <r_j_Total_Enthalpy_(au)_298.15K_1.00E+00atm> (1)
-170.837589915874

>  <r_j_Total_Free_Energy_(au)_298.15K_1.00E+00atm> (1)
-170.868292435356

>  <r_lp_tautomer_probability> (1)
1

>  <r_epik_Ionization_Penalty> (1)
  0.0000

>  <r_epik_Ionization_Penalty_Charging> (1)
  0.0000

>  <r_epik_Ionization_Penalty_Neutral> (1)
  0.0000

>  <r_epik_State_Penalty> (1)
  0.0000

>  <r_epik_Charging_Adjusted_Penalty> (1)
0

>  <i_epik_Tot_Q> (1)
0

>  <i_epik_Tot_abs_Q> (1)
0

>  <s_lp_Force_Field> (1)
S-OPLS

>  <r_lp_Energy> (1)
0.061447

>  <b_lp_Chiralities_Consistent> (1)
1

$$$$
