7868_2,4,4-trimethyl-1-pentene
                    3D
 Schrodinger Suite 2021-3.
 24 23  0  0  1  0            999 V2000
   -0.7242   -1.3889   -0.2731 C   0  0  0  0  0  0
   -0.0808   -0.0313   -0.1189 C   0  0  0  0  0  0
   -0.8057    1.0930   -0.1574 C   0  0  0  0  0  0
    1.4294   -0.0011    0.0361 C   0  0  0  0  0  0
    1.9907    0.0286    1.4934 C   0  0  0  0  0  0
    1.5983    1.3407    2.1940 C   0  0  0  0  0  0
    3.5261   -0.0559    1.4016 C   0  0  0  0  0  0
    1.4691   -1.1603    2.3198 C   0  0  0  0  0  0
   -0.3521   -1.8854   -1.1790 H   0  0  0  0  0  0
   -1.8130   -1.3179   -0.3483 H   0  0  0  0  0  0
   -0.4814   -2.0525    0.5636 H   0  0  0  0  0  0
   -1.8868    1.0737   -0.2653 H   0  0  0  0  0  0
   -0.3415    2.0725   -0.0864 H   0  0  0  0  0  0
    1.8564   -0.8779   -0.4693 H   0  0  0  0  0  0
    1.8264    0.8796   -0.4838 H   0  0  0  0  0  0
    2.0119    1.3743    3.2083 H   0  0  0  0  0  0
    0.5117    1.4408    2.2664 H   0  0  0  0  0  0
    1.9812    2.2101    1.6470 H   0  0  0  0  0  0
    3.9332    0.7712    0.8087 H   0  0  0  0  0  0
    3.8449   -0.9940    0.9328 H   0  0  0  0  0  0
    3.9798   -0.0082    2.3978 H   0  0  0  0  0  0
    1.9358   -1.1728    3.3113 H   0  0  0  0  0  0
    1.6958   -2.1154    1.8323 H   0  0  0  0  0  0
    0.3862   -1.0985    2.4657 H   0  0  0  0  0  0
  1  2  1  0  0  0
  1  9  1  0  0  0
  1 10  1  0  0  0
  1 11  1  0  0  0
  2  3  2  0  0  0
  2  4  1  0  0  0
  3 12  1  0  0  0
  3 13  1  0  0  0
  4  5  1  0  0  0
  4 14  1  0  0  0
  4 15  1  0  0  0
  5  6  1  0  0  0
  5  7  1  0  0  0
  5  8  1  0  0  0
  6 16  1  0  0  0
  6 17  1  0  0  0
  6 18  1  0  0  0
  7 19  1  0  0  0
  7 20  1  0  0  0
  7 21  1  0  0  0
  8 22  1  0  0  0
  8 23  1  0  0  0
  8 24  1  0  0  0
M  END
>  <i_m_Spin_multiplicity> (1)
1

>  <s_j_Task> (1)
Single Point

>  <s_j_QM_Method> (1)
DFT(b3lyp-d3)

>  <s_j_QM_Basis> (1)
cc-pvtz(-f)

>  <i_j_Number_of_canonical_orbitals> (1)
325

>  <i_j_Geometry_convergence_category> (1)
0

>  <r_j_Gas_Phase_Energy> (1)
-314.608694702985

>  <r_j_Final_Energy> (1)
-314.608694702985

>  <r_j_HOMO> (1)
-0.247102109240598

>  <r_j_LUMO> (1)
0.00621082841813508

>  <r_j_Polarizability> (1)
96.8864273083804

>  <r_j_QM_Dipole_(debye)> (1)
0.447052521686361

>  <r_j_QM_Dipole_X_(debye)> (1)
0.232679879344393

>  <r_j_QM_Dipole_Y_(debye)> (1)
-0.378762265609071

>  <r_j_QM_Dipole_Z_(debye)> (1)
0.0474887043947978

>  <r_j_Lowest_Frequency_(cm-1)> (1)
88.6235901380746

>  <r_j_Highest_Frequency_(cm-1)> (1)
3167.94190927765

>  <r_j_2nd_Lowest_Frequency_(cm-1)> (1)
154.116061447778

>  <i_j_Num_Negative_Frequencies> (1)
0

>  <r_j_Zero_Point_Energy_(kcal/mol)> (1)
138.719785617541

>  <r_j_Entropy_(cal/mol/K)_298.15K_1.00E+00atm> (1)
91.5567614856989

>  <r_j_Enthalpy_(kcal/mol)_298.15K_1.00E+00atm> (1)
6.56913914318129

>  <r_j_Free_Energy_(kcal/mol)_298.15K_1.00E+00atm> (1)
-20.7285092937798

>  <r_j_Internal_Energy_(kcal/mol)_298.15K_1.00E+00atm> (1)
5.97665355435402

>  <r_j_Heat_Capacity_(cal/mol/K)_298.15K_1.00E+00atm> (1)
37.9727920896509

>  <r_j_ln(Q)_298.15K_1.00E+00atm> (1)
34.985676756811

>  <r_j_Total_Internal_Energy_(au)_298.15K_1.00E+00atm> (1)
-314.378106248006

>  <r_j_Total_Enthalpy_(au)_298.15K_1.00E+00atm> (1)
-314.377162062114

>  <r_j_Total_Free_Energy_(au)_298.15K_1.00E+00atm> (1)
-314.420663634189

>  <r_lp_tautomer_probability> (1)
1

>  <r_epik_Ionization_Penalty> (1)
  0.0000

>  <r_epik_Ionization_Penalty_Charging> (1)
  0.0000

>  <r_epik_Ionization_Penalty_Neutral> (1)
  0.0000

>  <r_epik_State_Penalty> (1)
  0.0000

>  <r_epik_Charging_Adjusted_Penalty> (1)
0

>  <i_epik_Tot_Q> (1)
0

>  <i_epik_Tot_abs_Q> (1)
0

>  <s_lp_Force_Field> (1)
S-OPLS

>  <r_lp_Energy> (1)
1.37817

>  <b_lp_Chiralities_Consistent> (1)
1

$$$$
