7869_2,4,4-trimethyl-2-pentene
                    3D
 Schrodinger Suite 2021-3.
 24 23  0  0  1  0            999 V2000
   -0.0852   -0.0899    0.0016 C   0  0  0  0  0  0
    1.4285    0.1040   -0.0010 C   0  0  0  0  0  0
    2.2106   -0.9874    0.0018 C   0  0  0  0  0  0
    3.7344   -1.1322    0.0012 C   0  0  0  0  0  0
    4.0684   -2.6398   -0.0026 C   0  0  0  0  0  0
    4.3631   -0.5049    1.2648 C   0  0  0  0  0  0
    4.3636   -0.4984   -1.2589 C   0  0  0  0  0  0
    1.9325    1.5361   -0.0067 C   0  0  0  0  0  0
   -0.6209    0.8632   -0.0032 H   0  0  0  0  0  0
   -0.4165   -0.6457    0.8863 H   0  0  0  0  0  0
   -0.4183   -0.6557   -0.8759 H   0  0  0  0  0  0
    1.6808   -1.9418    0.0053 H   0  0  0  0  0  0
    5.1520   -2.8001   -0.0027 H   0  0  0  0  0  0
    3.6545   -3.1321   -0.8900 H   0  0  0  0  0  0
    3.6541   -3.1367    0.8820 H   0  0  0  0  0  0
    3.9229   -0.9310    2.1719 H   0  0  0  0  0  0
    4.2219    0.5780    1.2980 H   0  0  0  0  0  0
    5.4426   -0.6959    1.2881 H   0  0  0  0  0  0
    5.4428   -0.6905   -1.2834 H   0  0  0  0  0  0
    4.2236    0.5848   -1.2858 H   0  0  0  0  0  0
    3.9227   -0.9188   -2.1683 H   0  0  0  0  0  0
    1.1036    2.2487   -0.0021 H   0  0  0  0  0  0
    2.5399    1.7536   -0.8910 H   0  0  0  0  0  0
    2.5523    1.7566    0.8681 H   0  0  0  0  0  0
  1  2  1  0  0  0
  1  9  1  0  0  0
  1 10  1  0  0  0
  1 11  1  0  0  0
  2  3  2  0  0  0
  2  8  1  0  0  0
  3  4  1  0  0  0
  3 12  1  0  0  0
  4  5  1  0  0  0
  4  6  1  0  0  0
  4  7  1  0  0  0
  5 13  1  0  0  0
  5 14  1  0  0  0
  5 15  1  0  0  0
  6 16  1  0  0  0
  6 17  1  0  0  0
  6 18  1  0  0  0
  7 19  1  0  0  0
  7 20  1  0  0  0
  7 21  1  0  0  0
  8 22  1  0  0  0
  8 23  1  0  0  0
  8 24  1  0  0  0
M  END
>  <i_m_Spin_multiplicity> (1)
1

>  <s_j_Task> (1)
Single Point

>  <s_j_QM_Method> (1)
DFT(b3lyp-d3)

>  <s_j_QM_Basis> (1)
cc-pvtz(-f)

>  <i_j_Number_of_canonical_orbitals> (1)
325

>  <i_j_Geometry_convergence_category> (1)
3

>  <r_j_Gas_Phase_Energy> (1)
-314.599923165123

>  <r_j_Final_Energy> (1)
-314.599923165123

>  <r_j_HOMO> (1)
-0.233568323765432

>  <r_j_LUMO> (1)
0.00187361391320848

>  <r_j_Polarizability> (1)
97.9587598710308

>  <r_j_QM_Dipole_(debye)> (1)
0.332179319627963

>  <r_j_QM_Dipole_X_(debye)> (1)
-0.141464916118627

>  <r_j_QM_Dipole_Y_(debye)> (1)
0.300549659598515

>  <r_j_QM_Dipole_Z_(debye)> (1)
-0.000824627954216401

>  <r_j_Lowest_Frequency_(cm-1)> (1)
-111.28510206683

>  <r_j_Highest_Frequency_(cm-1)> (1)
3073.69365914288

>  <r_j_2nd_Lowest_Frequency_(cm-1)> (1)
-73.0284438569635

>  <i_j_Num_Negative_Frequencies> (1)
2

>  <r_j_Zero_Point_Energy_(kcal/mol)> (1)
137.599239391257

>  <r_j_Entropy_(cal/mol/K)_298.15K_1.00E+00atm> (1)
89.3817067263332

>  <r_j_Enthalpy_(kcal/mol)_298.15K_1.00E+00atm> (1)
6.17527631259014

>  <r_j_Free_Energy_(kcal/mol)_298.15K_1.00E+00atm> (1)
-20.4738795478661

>  <r_j_Internal_Energy_(kcal/mol)_298.15K_1.00E+00atm> (1)
5.58279072376286

>  <r_j_Heat_Capacity_(cal/mol/K)_298.15K_1.00E+00atm> (1)
35.3185177067841

>  <r_j_ln(Q)_298.15K_1.00E+00atm> (1)
34.5559114583541

>  <r_j_Total_Internal_Energy_(au)_298.15K_1.00E+00atm> (1)
-314.37174807461

>  <r_j_Total_Enthalpy_(au)_298.15K_1.00E+00atm> (1)
-314.370803888717

>  <r_j_Total_Free_Energy_(au)_298.15K_1.00E+00atm> (1)
-314.413272022084

>  <r_lp_tautomer_probability> (1)
1

>  <r_epik_Ionization_Penalty> (1)
  0.0000

>  <r_epik_Ionization_Penalty_Charging> (1)
  0.0000

>  <r_epik_Ionization_Penalty_Neutral> (1)
  0.0000

>  <r_epik_State_Penalty> (1)
  0.0000

>  <r_epik_Charging_Adjusted_Penalty> (1)
0

>  <i_epik_Tot_Q> (1)
0

>  <i_epik_Tot_abs_Q> (1)
0

>  <s_lp_Force_Field> (1)
S-OPLS

>  <r_lp_Energy> (1)
7.94878

>  <b_lp_Chiralities_Consistent> (1)
1

$$$$
