7870_Hexylene glycol
                    3D
 Schrodinger Suite 2021-3.
 22 21  0  0  1  0            999 V2000
   -2.1258    1.4332   -0.0112 C   0  0  0  0  0  0
   -0.6015    1.5008   -0.0210 C   0  0  0  0  0  0
    0.0195    0.0954    0.0418 C   0  0  0  0  0  0
    1.5573    0.0238   -0.0317 C   0  0  0  0  0  0
    2.0216   -1.4360    0.0384 C   0  0  0  0  0  0
    2.1206    0.7115   -1.2822 C   0  0  0  0  0  0
    2.0324    0.7172    1.1502 O   0  0  0  0  0  0
   -0.2131    2.3059    1.0845 O   0  0  0  0  0  0
   -2.5073    0.9045   -0.8913 H   0  0  0  0  0  0
   -2.5393    2.4455   -0.0046 H   0  0  0  0  0  0
   -2.4737    0.9187    0.8906 H   0  0  0  0  0  0
   -0.2902    1.9793   -0.9675 H   0  0  0  0  0  0
   -0.2944   -0.3743    0.9823 H   0  0  0  0  0  0
   -0.3856   -0.5104   -0.7777 H   0  0  0  0  0  0
    1.6739   -2.0041   -0.8305 H   0  0  0  0  0  0
    1.6385   -1.9116    0.9453 H   0  0  0  0  0  0
    3.1164   -1.4903    0.0591 H   0  0  0  0  0  0
    1.7019    0.2755   -2.1946 H   0  0  0  0  0  0
    3.2098    0.5914   -1.3262 H   0  0  0  0  0  0
    1.8969    1.7808   -1.2737 H   0  0  0  0  0  0
    2.9927    0.8057    1.0829 H   0  0  0  0  0  0
    0.7028    2.0651    1.2997 H   0  0  0  0  0  0
  1  2  1  0  0  0
  1  9  1  0  0  0
  1 10  1  0  0  0
  1 11  1  0  0  0
  2  3  1  0  0  0
  2  8  1  0  0  0
  2 12  1  0  0  0
  3  4  1  0  0  0
  3 13  1  0  0  0
  3 14  1  0  0  0
  4  5  1  0  0  0
  4  6  1  0  0  0
  4  7  1  0  0  0
  5 15  1  0  0  0
  5 16  1  0  0  0
  5 17  1  0  0  0
  6 18  1  0  0  0
  6 19  1  0  0  0
  6 20  1  0  0  0
  7 21  1  0  0  0
  8 22  1  0  0  0
M  END
>  <i_m_Spin_multiplicity> (1)
1

>  <s_j_Task> (1)
Single Point

>  <s_j_QM_Method> (1)
DFT(b3lyp-d3)

>  <s_j_QM_Basis> (1)
cc-pvtz(-f)

>  <i_j_Number_of_canonical_orbitals> (1)
309

>  <i_j_Geometry_convergence_category> (1)
3

>  <r_j_Gas_Phase_Energy> (1)
-387.684509820159

>  <r_j_Final_Energy> (1)
-387.684509820159

>  <r_j_HOMO> (1)
-0.249374644642088

>  <r_j_LUMO> (1)
0.0124113105433344

>  <r_j_Polarizability> (1)
82.4044247376379

>  <r_j_QM_Dipole_(debye)> (1)
3.45827083692921

>  <r_j_QM_Dipole_X_(debye)> (1)
2.18548200843851

>  <r_j_QM_Dipole_Y_(debye)> (1)
-1.9211965628432

>  <r_j_QM_Dipole_Z_(debye)> (1)
-1.86877214749848

>  <r_j_Lowest_Frequency_(cm-1)> (1)
61.0086792276406

>  <r_j_Highest_Frequency_(cm-1)> (1)
3753.31958164933

>  <r_j_2nd_Lowest_Frequency_(cm-1)> (1)
168.255605534593

>  <i_j_Num_Negative_Frequencies> (1)
0

>  <r_j_Zero_Point_Energy_(kcal/mol)> (1)
124.086176830543

>  <r_j_Entropy_(cal/mol/K)_298.15K_1.00E+00atm> (1)
91.2468291734025

>  <r_j_Enthalpy_(kcal/mol)_298.15K_1.00E+00atm> (1)
6.49484291423164

>  <r_j_Free_Energy_(kcal/mol)_298.15K_1.00E+00atm> (1)
-20.7103992038183

>  <r_j_Internal_Energy_(kcal/mol)_298.15K_1.00E+00atm> (1)
5.90235732540436

>  <r_j_Heat_Capacity_(cal/mol/K)_298.15K_1.00E+00atm> (1)
37.1712420501761

>  <r_j_ln(Q)_298.15K_1.00E+00atm> (1)
34.9551104606798

>  <r_j_Total_Internal_Energy_(au)_298.15K_1.00E+00atm> (1)
-387.47735990391

>  <r_j_Total_Enthalpy_(au)_298.15K_1.00E+00atm> (1)
-387.476415718018

>  <r_j_Total_Free_Energy_(au)_298.15K_1.00E+00atm> (1)
-387.51977003125

>  <r_lp_tautomer_probability> (1)
1

>  <r_epik_Ionization_Penalty> (1)
  0.0000

>  <r_epik_Ionization_Penalty_Charging> (1)
  0.0000

>  <r_epik_Ionization_Penalty_Neutral> (1)
  0.0000

>  <r_epik_State_Penalty> (1)
  0.0000

>  <r_epik_Charging_Adjusted_Penalty> (1)
0

>  <i_epik_Tot_Q> (1)
0

>  <i_epik_Tot_abs_Q> (1)
0

>  <s_lp_Force_Field> (1)
S-OPLS

>  <r_lp_Energy> (1)
0.478587

>  <b_lp_Chiralities_Consistent> (1)
1

$$$$
