7895_Methyl propyl ketone
                    3D
 Schrodinger Suite 2021-3.
 16 15  0  0  1  0            999 V2000
   -0.6140    1.3775   -0.0837 C   0  0  0  0  0  0
    0.0326   -0.0099   -0.0716 C   0  0  0  0  0  0
    1.5656    0.0572    0.0928 C   0  0  0  0  0  0
    2.1644   -1.3429    0.0620 C   0  0  0  0  0  0
    2.4506   -1.8804   -0.9913 O   0  0  0  0  0  0
    2.3408   -2.0444    1.3966 C   0  0  0  0  0  0
   -1.6997    1.3076   -0.2059 H   0  0  0  0  0  0
   -0.2222    1.9856   -0.9065 H   0  0  0  0  0  0
   -0.4154    1.9148    0.8505 H   0  0  0  0  0  0
   -0.3980   -0.6109    0.7402 H   0  0  0  0  0  0
   -0.1921   -0.5391   -1.0048 H   0  0  0  0  0  0
    1.9962    0.6265   -0.7373 H   0  0  0  0  0  0
    1.8139    0.5674    1.0319 H   0  0  0  0  0  0
    3.1314   -1.5449    1.9701 H   0  0  0  0  0  0
    2.6122   -3.0890    1.2380 H   0  0  0  0  0  0
    1.4253   -1.9783    1.9954 H   0  0  0  0  0  0
  1  2  1  0  0  0
  1  7  1  0  0  0
  1  8  1  0  0  0
  1  9  1  0  0  0
  2  3  1  0  0  0
  2 10  1  0  0  0
  2 11  1  0  0  0
  3  4  1  0  0  0
  3 12  1  0  0  0
  3 13  1  0  0  0
  4  5  2  0  0  0
  4  6  1  0  0  0
  6 14  1  0  0  0
  6 15  1  0  0  0
  6 16  1  0  0  0
M  END
>  <i_m_Spin_multiplicity> (1)
1

>  <s_j_Task> (1)
Single Point

>  <s_j_QM_Method> (1)
DFT(b3lyp-d3)

>  <s_j_QM_Basis> (1)
cc-pvtz(-f)

>  <i_j_Number_of_canonical_orbitals> (1)
227

>  <i_j_Geometry_convergence_category> (1)
3

>  <r_j_Gas_Phase_Energy> (1)
-271.890360165957

>  <r_j_Final_Energy> (1)
-271.890360165957

>  <r_j_HOMO> (1)
-0.257336504238915

>  <r_j_LUMO> (1)
-0.0300984653642822

>  <r_j_Polarizability> (1)
63.6138696197557

>  <r_j_QM_Dipole_(debye)> (1)
2.89197599401811

>  <r_j_QM_Dipole_X_(debye)> (1)
-0.964463994737527

>  <r_j_QM_Dipole_Y_(debye)> (1)
1.3450383015508

>  <r_j_QM_Dipole_Z_(debye)> (1)
2.37154091682883

>  <r_j_Lowest_Frequency_(cm-1)> (1)
95.5049875039742

>  <r_j_Highest_Frequency_(cm-1)> (1)
3099.42033512841

>  <r_j_2nd_Lowest_Frequency_(cm-1)> (1)
137.705084878822

>  <i_j_Num_Negative_Frequencies> (1)
0

>  <r_j_Zero_Point_Energy_(kcal/mol)> (1)
88.4645768979155

>  <r_j_Entropy_(cal/mol/K)_298.15K_1.00E+00atm> (1)
82.574039685175

>  <r_j_Enthalpy_(kcal/mol)_298.15K_1.00E+00atm> (1)
5.15816539485898

>  <r_j_Free_Energy_(kcal/mol)_298.15K_1.00E+00atm> (1)
-19.461284537276

>  <r_j_Internal_Energy_(kcal/mol)_298.15K_1.00E+00atm> (1)
4.5656798060317

>  <r_j_Heat_Capacity_(cal/mol/K)_298.15K_1.00E+00atm> (1)
25.7421065101228

>  <r_j_ln(Q)_298.15K_1.00E+00atm> (1)
32.846848774493

>  <r_j_Total_Internal_Energy_(au)_298.15K_1.00E+00atm> (1)
-271.74210701417

>  <r_j_Total_Enthalpy_(au)_298.15K_1.00E+00atm> (1)
-271.741162828277

>  <r_j_Total_Free_Energy_(au)_298.15K_1.00E+00atm> (1)
-271.780396419337

>  <r_lp_tautomer_probability> (1)
1

>  <r_epik_Ionization_Penalty> (1)
  0.0000

>  <r_epik_Ionization_Penalty_Charging> (1)
  0.0000

>  <r_epik_Ionization_Penalty_Neutral> (1)
  0.0000

>  <r_epik_State_Penalty> (1)
  0.0000

>  <r_epik_Charging_Adjusted_Penalty> (1)
0

>  <i_epik_Tot_Q> (1)
0

>  <i_epik_Tot_abs_Q> (1)
0

>  <s_lp_Force_Field> (1)
S-OPLS

>  <r_lp_Energy> (1)
0.822669

>  <b_lp_Chiralities_Consistent> (1)
1

$$$$
