7900_Propylene glycol methyl ether
                    3D
 Schrodinger Suite 2021-3.
 16 15  0  0  1  0            999 V2000
   -0.5967    1.4790   -0.0220 C   0  0  0  0  0  0
   -0.0486    0.0618    0.0596 C   0  0  0  0  0  0
    1.4768    0.0337    0.0560 C   0  0  0  0  0  0
    1.8641   -1.3336    0.0801 O   0  0  0  0  0  0
    3.2565   -1.5254   -0.0731 C   0  0  0  0  0  0
   -0.5441   -0.6582   -1.0631 O   0  0  0  0  0  0
   -0.2832    2.0739    0.8418 H   0  0  0  0  0  0
   -1.6889    1.4516   -0.0488 H   0  0  0  0  0  0
   -0.2470    1.9682   -0.9367 H   0  0  0  0  0  0
   -0.3865   -0.4118    0.9976 H   0  0  0  0  0  0
    1.8491    0.5240   -0.8590 H   0  0  0  0  0  0
    1.8848    0.5728    0.9271 H   0  0  0  0  0  0
    3.4423   -2.6020   -0.0462 H   0  0  0  0  0  0
    3.8245   -1.0469    0.7398 H   0  0  0  0  0  0
    3.6216   -1.1235   -1.0313 H   0  0  0  0  0  0
   -0.0478   -1.4899   -1.0806 H   0  0  0  0  0  0
  1  2  1  0  0  0
  1  7  1  0  0  0
  1  8  1  0  0  0
  1  9  1  0  0  0
  2  3  1  0  0  0
  2  6  1  0  0  0
  2 10  1  0  0  0
  3  4  1  0  0  0
  3 11  1  0  0  0
  3 12  1  0  0  0
  4  5  1  0  0  0
  5 13  1  0  0  0
  5 14  1  0  0  0
  5 15  1  0  0  0
  6 16  1  0  0  0
M  END
>  <i_m_Spin_multiplicity> (1)
1

>  <s_j_Task> (1)
Single Point

>  <s_j_QM_Method> (1)
DFT(b3lyp-d3)

>  <s_j_QM_Basis> (1)
cc-pvtz(-f)

>  <i_j_Number_of_canonical_orbitals> (1)
228

>  <i_j_Geometry_convergence_category> (1)
0

>  <r_j_Gas_Phase_Energy> (1)
-309.002773449978

>  <r_j_Final_Energy> (1)
-309.002773449978

>  <r_j_HOMO> (1)
-0.269497653320957

>  <r_j_LUMO> (1)
0.0285324269400712

>  <r_j_Polarizability> (1)
59.7587693233083

>  <r_j_QM_Dipole_(debye)> (1)
2.24395669916842

>  <r_j_QM_Dipole_X_(debye)> (1)
2.05528716399576

>  <r_j_QM_Dipole_Y_(debye)> (1)
0.353535647140722

>  <r_j_QM_Dipole_Z_(debye)> (1)
0.82834104537797

>  <r_j_Lowest_Frequency_(cm-1)> (1)
107.064041071897

>  <r_j_Highest_Frequency_(cm-1)> (1)
3727.95749483739

>  <r_j_2nd_Lowest_Frequency_(cm-1)> (1)
172.903824603481

>  <i_j_Num_Negative_Frequencies> (1)
0

>  <r_j_Zero_Point_Energy_(kcal/mol)> (1)
88.5796803141472

>  <r_j_Entropy_(cal/mol/K)_298.15K_1.00E+00atm> (1)
82.222450795972

>  <r_j_Enthalpy_(kcal/mol)_298.15K_1.00E+00atm> (1)
5.17562945640137

>  <r_j_Free_Energy_(kcal/mol)_298.15K_1.00E+00atm> (1)
-19.3389942484177

>  <r_j_Internal_Energy_(kcal/mol)_298.15K_1.00E+00atm> (1)
4.58314386757409

>  <r_j_Heat_Capacity_(cal/mol/K)_298.15K_1.00E+00atm> (1)
26.1208179791709

>  <r_j_ln(Q)_298.15K_1.00E+00atm> (1)
32.6404466422483

>  <r_j_Total_Internal_Energy_(au)_298.15K_1.00E+00atm> (1)
-308.854309038466

>  <r_j_Total_Enthalpy_(au)_298.15K_1.00E+00atm> (1)
-308.853364852574

>  <r_j_Total_Free_Energy_(au)_298.15K_1.00E+00atm> (1)
-308.892431392406

>  <r_lp_tautomer_probability> (1)
1

>  <r_epik_Ionization_Penalty> (1)
  0.0000

>  <r_epik_Ionization_Penalty_Charging> (1)
  0.0000

>  <r_epik_Ionization_Penalty_Neutral> (1)
  0.0000

>  <r_epik_State_Penalty> (1)
  0.0000

>  <r_epik_Charging_Adjusted_Penalty> (1)
0

>  <i_epik_Tot_Q> (1)
0

>  <i_epik_Tot_abs_Q> (1)
0

>  <s_lp_Force_Field> (1)
S-OPLS

>  <r_lp_Energy> (1)
-0.345066

>  <b_lp_Chiralities_Consistent> (1)
1

$$$$
