7902_N,n-dimethylethanolamine
                    3D
 Schrodinger Suite 2021-3.
 17 16  0  0  1  0            999 V2000
   -0.4945    1.5057    0.3238 C   0  0  0  0  0  0
    0.0132    0.1958   -0.0661 N   0  0  0  0  0  0
   -0.4543   -0.8312    0.8588 C   0  0  0  0  0  0
    1.4687    0.2079   -0.2021 C   0  0  0  0  0  0
    1.9967   -0.9685   -1.0193 C   0  0  0  0  0  0
    3.3991   -0.7638   -1.1647 O   0  0  0  0  0  0
   -0.1992    2.2556   -0.4167 H   0  0  0  0  0  0
   -0.1297    1.8404    1.3147 H   0  0  0  0  0  0
   -1.5886    1.4809    0.3611 H   0  0  0  0  0  0
   -0.1433   -1.8241    0.5240 H   0  0  0  0  0  0
   -1.5485   -0.8237    0.8927 H   0  0  0  0  0  0
   -0.0790   -0.6869    1.8914 H   0  0  0  0  0  0
    1.7614    1.1201   -0.7325 H   0  0  0  0  0  0
    1.9869    0.2288    0.7762 H   0  0  0  0  0  0
    1.7878   -1.9238   -0.5131 H   0  0  0  0  0  0
    1.4754   -0.9855   -1.9886 H   0  0  0  0  0  0
    3.7554   -1.4939   -1.6851 H   0  0  0  0  0  0
  1  2  1  0  0  0
  1  7  1  0  0  0
  1  8  1  0  0  0
  1  9  1  0  0  0
  2  3  1  0  0  0
  2  4  1  0  0  0
  3 10  1  0  0  0
  3 11  1  0  0  0
  3 12  1  0  0  0
  4  5  1  0  0  0
  4 13  1  0  0  0
  4 14  1  0  0  0
  5  6  1  0  0  0
  5 15  1  0  0  0
  5 16  1  0  0  0
  6 17  1  0  0  0
M  END
>  <i_m_Spin_multiplicity> (1)
1

>  <s_j_Task> (1)
Single Point

>  <s_j_QM_Method> (1)
DFT(b3lyp-d3)

>  <s_j_QM_Basis> (1)
cc-pvtz(-f)

>  <i_j_Number_of_canonical_orbitals> (1)
237

>  <i_j_Geometry_convergence_category> (1)
3

>  <r_j_Gas_Phase_Energy> (1)
-289.114147965705

>  <r_j_Final_Energy> (1)
-289.114147965705

>  <r_j_HOMO> (1)
-0.220347997122977

>  <r_j_LUMO> (1)
0.0274428368083292

>  <r_j_Polarizability> (1)
64.2336255715924

>  <r_j_QM_Dipole_(debye)> (1)
1.16392864785332

>  <r_j_QM_Dipole_X_(debye)> (1)
-0.548727741735665

>  <r_j_QM_Dipole_Y_(debye)> (1)
-1.01547423206238

>  <r_j_QM_Dipole_Z_(debye)> (1)
-0.149799355007497

>  <r_j_Lowest_Frequency_(cm-1)> (1)
109.589204704577

>  <r_j_Highest_Frequency_(cm-1)> (1)
3781.79247820754

>  <r_j_2nd_Lowest_Frequency_(cm-1)> (1)
140.199302362201

>  <i_j_Num_Negative_Frequencies> (1)
0

>  <r_j_Zero_Point_Energy_(kcal/mol)> (1)
96.2311698938077

>  <r_j_Entropy_(cal/mol/K)_298.15K_1.00E+00atm> (1)
83.0395507215016

>  <r_j_Enthalpy_(kcal/mol)_298.15K_1.00E+00atm> (1)
5.29074874308273

>  <r_j_Free_Energy_(kcal/mol)_298.15K_1.00E+00atm> (1)
-19.467493304533

>  <r_j_Internal_Energy_(kcal/mol)_298.15K_1.00E+00atm> (1)
4.69826315425546

>  <r_j_Heat_Capacity_(cal/mol/K)_298.15K_1.00E+00atm> (1)
26.8716444100364

>  <r_j_ln(Q)_298.15K_1.00E+00atm> (1)
32.8573279614541

>  <r_j_Total_Internal_Energy_(au)_298.15K_1.00E+00atm> (1)
-288.953306675058

>  <r_j_Total_Enthalpy_(au)_298.15K_1.00E+00atm> (1)
-288.952362489166

>  <r_j_Total_Free_Energy_(au)_298.15K_1.00E+00atm> (1)
-288.991817259542

>  <r_epik_Ionization_Penalty> (1)
  1.3224

>  <r_epik_Ionization_Penalty_Charging> (1)
  0.0000

>  <r_epik_Ionization_Penalty_Neutral> (1)
  1.3224

>  <r_epik_State_Penalty> (1)
  1.3981

>  <r_epik_Charging_Adjusted_Penalty> (1)
1.39808

>  <i_epik_Tot_Q> (1)
0

>  <i_epik_Tot_abs_Q> (1)
0

>  <s_lp_Force_Field> (1)
S-OPLS

>  <r_lp_Energy> (1)
8.53577

>  <b_lp_Chiralities_Consistent> (1)
1

$$$$
