7903_1-Nitropropane
                    3D
 Schrodinger Suite 2021-3.
 13 12  0  0  1  0            999 V2000
   -0.5265    1.4367    0.0000 C   0  0  0  0  0  0
    0.0229    0.0076    0.0002 C   0  0  0  0  0  0
    1.5536    0.0026    0.0000 C   0  0  0  0  0  0
    2.0440   -1.4198   -0.0001 N   0  3  1  0  0  0
    2.2009   -1.9573   -1.0933 O   0  0  0  0  0  0
    2.1991   -1.9580    1.0932 O   0  5  0  0  0  0
   -1.6201    1.4295    0.0002 H   0  0  0  0  0  0
   -0.1954    1.9895   -0.8858 H   0  0  0  0  0  0
   -0.1951    1.9898    0.8854 H   0  0  0  0  0  0
   -0.3271   -0.5380    0.8832 H   0  0  0  0  0  0
   -0.3273   -0.5383   -0.8827 H   0  0  0  0  0  0
    1.9614    0.4683   -0.8983 H   0  0  0  0  0  0
    1.9615    0.4681    0.8984 H   0  0  0  0  0  0
  1  2  1  0  0  0
  1  7  1  0  0  0
  1  8  1  0  0  0
  1  9  1  0  0  0
  2  3  1  0  0  0
  2 10  1  0  0  0
  2 11  1  0  0  0
  3  4  1  0  0  0
  3 12  1  0  0  0
  3 13  1  0  0  0
  4  5  2  0  0  0
  4  6  1  0  0  0
M  END
>  <i_m_Spin_multiplicity> (1)
1

>  <s_j_Task> (1)
Single Point

>  <s_j_QM_Method> (1)
DFT(b3lyp-d3)

>  <s_j_QM_Basis> (1)
cc-pvtz(-f)

>  <i_j_Number_of_canonical_orbitals> (1)
201

>  <i_j_Geometry_convergence_category> (1)
0

>  <r_j_Gas_Phase_Energy> (1)
-323.767046579803

>  <r_j_Final_Energy> (1)
-323.767046579803

>  <r_j_HOMO> (1)
-0.307382156842818

>  <r_j_LUMO> (1)
-0.0830797328665856

>  <r_j_Polarizability> (1)
52.4712903582124

>  <r_j_QM_Dipole_(debye)> (1)
3.85495554809233

>  <r_j_QM_Dipole_X_(debye)> (1)
-1.64785006553579

>  <r_j_QM_Dipole_Y_(debye)> (1)
3.48500678222324

>  <r_j_QM_Dipole_Z_(debye)> (1)
-0.000408827062611871

>  <r_j_Lowest_Frequency_(cm-1)> (1)
90.4417217153779

>  <r_j_Highest_Frequency_(cm-1)> (1)
3111.89844931091

>  <r_j_2nd_Lowest_Frequency_(cm-1)> (1)
136.732715883046

>  <i_j_Num_Negative_Frequencies> (1)
0

>  <r_j_Zero_Point_Energy_(kcal/mol)> (1)
67.1671662337287

>  <r_j_Entropy_(cal/mol/K)_298.15K_1.00E+00atm> (1)
79.3213314367196

>  <r_j_Enthalpy_(kcal/mol)_298.15K_1.00E+00atm> (1)
4.60107971714189

>  <r_j_Free_Energy_(kcal/mol)_298.15K_1.00E+00atm> (1)
-19.048575250716

>  <r_j_Internal_Energy_(kcal/mol)_298.15K_1.00E+00atm> (1)
4.00859412831462

>  <r_j_Heat_Capacity_(cal/mol/K)_298.15K_1.00E+00atm> (1)
21.781848231376

>  <r_j_ln(Q)_298.15K_1.00E+00atm> (1)
32.150276074089

>  <r_j_Total_Internal_Energy_(au)_298.15K_1.00E+00atm> (1)
-323.653620785031

>  <r_j_Total_Enthalpy_(au)_298.15K_1.00E+00atm> (1)
-323.652676599139

>  <r_j_Total_Free_Energy_(au)_298.15K_1.00E+00atm> (1)
-323.690364723539

>  <r_epik_Ionization_Penalty> (1)
  0.0003

>  <r_epik_Ionization_Penalty_Charging> (1)
  0.0000

>  <r_epik_Ionization_Penalty_Neutral> (1)
  0.0003

>  <r_epik_State_Penalty> (1)
  0.0002

>  <r_epik_Charging_Adjusted_Penalty> (1)
0.000212338978339742

>  <i_epik_Tot_Q> (1)
0

>  <i_epik_Tot_abs_Q> (1)
2

>  <s_lp_Force_Field> (1)
S-OPLS

>  <r_lp_Energy> (1)
1.488319

>  <b_lp_Chiralities_Consistent> (1)
1

$$$$
