79123_2-Butyl nitrate
                    3D
 Schrodinger Suite 2021-3.
 17 16  0  0  1  0            999 V2000
   -0.7766    1.3516   -0.2337 C   0  0  0  0  0  0
   -0.0778    0.0120    0.0120 C   0  0  0  0  0  0
    1.4466    0.1001   -0.0481 C   0  0  0  0  0  0
    2.1512   -1.2386    0.1213 C   0  0  0  0  0  0
    1.7979    0.9863    1.0656 O   0  0  0  0  0  0
    3.0568    1.6157    0.9700 N   0  3  1  0  0  0
    3.3052    2.3033    1.9316 O   0  0  0  0  0  0
    3.7280    1.4151   -0.0250 O   0  5  0  0  0  0
   -1.8636    1.2397   -0.1864 H   0  0  0  0  0  0
   -0.5233    1.7522   -1.2218 H   0  0  0  0  0  0
   -0.4767    2.0889    0.5156 H   0  0  0  0  0  0
   -0.3665   -0.3990    0.9869 H   0  0  0  0  0  0
   -0.3860   -0.7229   -0.7416 H   0  0  0  0  0  0
    1.7612    0.5895   -0.9749 H   0  0  0  0  0  0
    1.8757   -1.9101   -0.6979 H   0  0  0  0  0  0
    1.8590   -1.7049    1.0669 H   0  0  0  0  0  0
    3.2352   -1.1091    0.1070 H   0  0  0  0  0  0
  1  2  1  0  0  0
  1  9  1  0  0  0
  1 10  1  0  0  0
  1 11  1  0  0  0
  2  3  1  0  0  0
  2 12  1  0  0  0
  2 13  1  0  0  0
  3  4  1  0  0  0
  3  5  1  0  0  0
  3 14  1  0  0  0
  4 15  1  0  0  0
  4 16  1  0  0  0
  4 17  1  0  0  0
  5  6  1  0  0  0
  6  7  2  0  0  0
  6  8  1  0  0  0
M  END
>  <i_m_Spin_multiplicity> (1)
1

>  <s_j_Task> (1)
Single Point

>  <s_j_QM_Method> (1)
DFT(b3lyp-d3)

>  <s_j_QM_Basis> (1)
cc-pvtz(-f)

>  <i_j_Number_of_canonical_orbitals> (1)
265

>  <i_j_Geometry_convergence_category> (1)
0

>  <r_j_Gas_Phase_Energy> (1)
-438.310723583151

>  <r_j_Final_Energy> (1)
-438.310723583151

>  <r_j_HOMO> (1)
-0.31427000889743

>  <r_j_LUMO> (1)
-0.0686361797188477

>  <r_j_Polarizability> (1)
70.4574417811726

>  <r_j_QM_Dipole_(debye)> (1)
3.50616814042547

>  <r_j_QM_Dipole_X_(debye)> (1)
-2.26936545737855

>  <r_j_QM_Dipole_Y_(debye)> (1)
-2.18909968625528

>  <r_j_QM_Dipole_Z_(debye)> (1)
-1.53330949694726

>  <r_j_Lowest_Frequency_(cm-1)> (1)
98.6843160534858

>  <r_j_Highest_Frequency_(cm-1)> (1)
3087.90742069593

>  <r_j_2nd_Lowest_Frequency_(cm-1)> (1)
110.651401232556

>  <i_j_Num_Negative_Frequencies> (1)
0

>  <r_j_Zero_Point_Energy_(kcal/mol)> (1)
87.0959011612445

>  <r_j_Entropy_(cal/mol/K)_298.15K_1.00E+00atm> (1)
89.4044198842695

>  <r_j_Enthalpy_(kcal/mol)_298.15K_1.00E+00atm> (1)
5.90051167721972

>  <r_j_Free_Energy_(kcal/mol)_298.15K_1.00E+00atm> (1)
-20.7554161112752

>  <r_j_Internal_Energy_(kcal/mol)_298.15K_1.00E+00atm> (1)
5.30802608839244

>  <r_j_Heat_Capacity_(cal/mol/K)_298.15K_1.00E+00atm> (1)
30.6561187743625

>  <r_j_ln(Q)_298.15K_1.00E+00atm> (1)
35.03109021159

>  <r_j_Total_Internal_Energy_(au)_298.15K_1.00E+00atm> (1)
-438.163468550889

>  <r_j_Total_Enthalpy_(au)_298.15K_1.00E+00atm> (1)
-438.162524364997

>  <r_j_Total_Free_Energy_(au)_298.15K_1.00E+00atm> (1)
-438.205003290117

>  <r_lp_tautomer_probability> (1)
1

>  <r_epik_Ionization_Penalty> (1)
  0.0000

>  <r_epik_Ionization_Penalty_Charging> (1)
  0.0000

>  <r_epik_Ionization_Penalty_Neutral> (1)
  0.0000

>  <r_epik_State_Penalty> (1)
  0.0000

>  <r_epik_Charging_Adjusted_Penalty> (1)
0

>  <i_epik_Tot_Q> (1)
0

>  <i_epik_Tot_abs_Q> (1)
2

>  <s_lp_Force_Field> (1)
S-OPLS

>  <r_lp_Energy> (1)
5.747459

>  <b_lp_Chiralities_Consistent> (1)
1

$$$$
