7914_Isopropyl ether
                    3D
 Schrodinger Suite 2021-3.
 21 20  0  0  1  0            999 V2000
   -0.5628   -0.8005   -1.0842 C   0  0  0  0  0  0
   -0.0825    0.1546    0.0028 C   0  0  0  0  0  0
   -0.4704    1.6069   -0.2865 C   0  0  0  0  0  0
    1.3402    0.0218    0.0587 O   0  0  0  0  0  0
    1.9480    0.3257    1.3169 C   0  0  0  0  0  0
    3.3728    0.7736    1.0109 C   0  0  0  0  0  0
    1.9080   -0.8973    2.2366 C   0  0  0  0  0  0
   -1.6500   -0.7493   -1.2000 H   0  0  0  0  0  0
   -0.2802   -1.8279   -0.8392 H   0  0  0  0  0  0
   -0.0982   -0.5376   -2.0401 H   0  0  0  0  0  0
   -0.5241   -0.1508    0.9652 H   0  0  0  0  0  0
   -1.5587    1.7230   -0.3286 H   0  0  0  0  0  0
   -0.0472    1.9180   -1.2469 H   0  0  0  0  0  0
   -0.0893    2.2804    0.4875 H   0  0  0  0  0  0
    1.4097    1.1571    1.8003 H   0  0  0  0  0  0
    3.9150    1.0148    1.9306 H   0  0  0  0  0  0
    3.3633    1.6545    0.3633 H   0  0  0  0  0  0
    3.9091   -0.0266    0.4905 H   0  0  0  0  0  0
    2.3677   -0.6764    3.2059 H   0  0  0  0  0  0
    2.4507   -1.7266    1.7720 H   0  0  0  0  0  0
    0.8791   -1.2232    2.4181 H   0  0  0  0  0  0
  1  2  1  0  0  0
  1  8  1  0  0  0
  1  9  1  0  0  0
  1 10  1  0  0  0
  2  3  1  0  0  0
  2  4  1  0  0  0
  2 11  1  0  0  0
  3 12  1  0  0  0
  3 13  1  0  0  0
  3 14  1  0  0  0
  4  5  1  0  0  0
  5  6  1  0  0  0
  5  7  1  0  0  0
  5 15  1  0  0  0
  6 16  1  0  0  0
  6 17  1  0  0  0
  6 18  1  0  0  0
  7 19  1  0  0  0
  7 20  1  0  0  0
  7 21  1  0  0  0
M  END
>  <i_m_Spin_multiplicity> (1)
1

>  <s_j_Task> (1)
Single Point

>  <s_j_QM_Method> (1)
DFT(b3lyp-d3)

>  <s_j_QM_Basis> (1)
cc-pvtz(-f)

>  <i_j_Number_of_canonical_orbitals> (1)
286

>  <i_j_Geometry_convergence_category> (1)
3

>  <r_j_Gas_Phase_Energy> (1)
-312.424649503888

>  <r_j_Final_Energy> (1)
-312.424649503888

>  <r_j_HOMO> (1)
-0.253975160292785

>  <r_j_LUMO> (1)
0.0234512712982575

>  <r_j_Polarizability> (1)
79.9223566508097

>  <r_j_QM_Dipole_(debye)> (1)
1.15361512766867

>  <r_j_QM_Dipole_X_(debye)> (1)
-0.619728577187873

>  <r_j_QM_Dipole_Y_(debye)> (1)
0.331935379680629

>  <r_j_QM_Dipole_Z_(debye)> (1)
0.914649253604335

>  <r_j_Lowest_Frequency_(cm-1)> (1)
87.8121114773042

>  <r_j_Highest_Frequency_(cm-1)> (1)
3069.28757596785

>  <r_j_2nd_Lowest_Frequency_(cm-1)> (1)
95.8573916887065

>  <i_j_Num_Negative_Frequencies> (1)
0

>  <r_j_Zero_Point_Energy_(kcal/mol)> (1)
120.432618625177

>  <r_j_Entropy_(cal/mol/K)_298.15K_1.00E+00atm> (1)
89.2251905440142

>  <r_j_Enthalpy_(kcal/mol)_298.15K_1.00E+00atm> (1)
6.1419088028958

>  <r_j_Free_Energy_(kcal/mol)_298.15K_1.00E+00atm> (1)
-20.460581757802

>  <r_j_Internal_Energy_(kcal/mol)_298.15K_1.00E+00atm> (1)
5.54942321406853

>  <r_j_Heat_Capacity_(cal/mol/K)_298.15K_1.00E+00atm> (1)
33.3053901058068

>  <r_j_ln(Q)_298.15K_1.00E+00atm> (1)
34.5334673849204

>  <r_j_Total_Internal_Energy_(au)_298.15K_1.00E+00atm> (1)
-312.223884339596

>  <r_j_Total_Enthalpy_(au)_298.15K_1.00E+00atm> (1)
-312.222940153704

>  <r_j_Total_Free_Energy_(au)_298.15K_1.00E+00atm> (1)
-312.265333921181

>  <r_lp_tautomer_probability> (1)
1

>  <r_epik_Ionization_Penalty> (1)
  0.0000

>  <r_epik_Ionization_Penalty_Charging> (1)
  0.0000

>  <r_epik_Ionization_Penalty_Neutral> (1)
  0.0000

>  <r_epik_State_Penalty> (1)
  0.0000

>  <r_epik_Charging_Adjusted_Penalty> (1)
0

>  <i_epik_Tot_Q> (1)
0

>  <i_epik_Tot_abs_Q> (1)
0

>  <s_lp_Force_Field> (1)
S-OPLS

>  <r_lp_Energy> (1)
-0.142097

>  <b_lp_Chiralities_Consistent> (1)
1

$$$$
