7915_Isopropyl acetate
                    3D
 Schrodinger Suite 2021-3.
 17 16  0  0  1  0            999 V2000
   -0.4035   -0.6440   -1.2814 C   0  0  0  0  0  0
   -0.0957    0.0873    0.0159 C   0  0  0  0  0  0
   -0.6688    1.4991    0.0697 C   0  0  0  0  0  0
    1.3595    0.1507    0.0960 O   0  0  0  0  0  0
    1.8987    0.3155    1.3250 C   0  0  0  0  0  0
    1.2521    0.4059    2.3469 O   0  0  0  0  0  0
    3.4061    0.3685    1.2394 C   0  0  0  0  0  0
   -1.4853   -0.7558   -1.4017 H   0  0  0  0  0  0
    0.0520   -1.6379   -1.2834 H   0  0  0  0  0  0
   -0.0159   -0.0842   -2.1385 H   0  0  0  0  0  0
   -0.4496   -0.4860    0.8788 H   0  0  0  0  0  0
   -1.7593    1.4669   -0.0189 H   0  0  0  0  0  0
   -0.2720    2.1017   -0.7538 H   0  0  0  0  0  0
   -0.4125    1.9747    1.0184 H   0  0  0  0  0  0
    3.7865   -0.5481    0.7795 H   0  0  0  0  0  0
    3.8223    0.4883    2.2391 H   0  0  0  0  0  0
    3.7116    1.2039    0.6027 H   0  0  0  0  0  0
  1  2  1  0  0  0
  1  8  1  0  0  0
  1  9  1  0  0  0
  1 10  1  0  0  0
  2  3  1  0  0  0
  2  4  1  0  0  0
  2 11  1  0  0  0
  3 12  1  0  0  0
  3 13  1  0  0  0
  3 14  1  0  0  0
  4  5  1  0  0  0
  5  6  2  0  0  0
  5  7  1  0  0  0
  7 15  1  0  0  0
  7 16  1  0  0  0
  7 17  1  0  0  0
M  END
>  <i_m_Spin_multiplicity> (1)
1

>  <s_j_Task> (1)
Single Point

>  <s_j_QM_Method> (1)
DFT(b3lyp-d3)

>  <s_j_QM_Basis> (1)
cc-pvtz(-f)

>  <i_j_Number_of_canonical_orbitals> (1)
250

>  <i_j_Geometry_convergence_category> (1)
0

>  <r_j_Gas_Phase_Energy> (1)
-347.162917334338

>  <r_j_Final_Energy> (1)
-347.162917334338

>  <r_j_HOMO> (1)
-0.281217833621583

>  <r_j_LUMO> (1)
0.000436581406761453

>  <r_j_Polarizability> (1)
67.3458519692806

>  <r_j_QM_Dipole_(debye)> (1)
1.90836308154086

>  <r_j_QM_Dipole_X_(debye)> (1)
0.254216591965721

>  <r_j_QM_Dipole_Y_(debye)> (1)
-0.16199148592596

>  <r_j_QM_Dipole_Z_(debye)> (1)
-1.88440503444587

>  <r_j_Lowest_Frequency_(cm-1)> (1)
109.950556090741

>  <r_j_Highest_Frequency_(cm-1)> (1)
3118.11417629361

>  <r_j_2nd_Lowest_Frequency_(cm-1)> (1)
125.436933909393

>  <i_j_Num_Negative_Frequencies> (1)
0

>  <r_j_Zero_Point_Energy_(kcal/mol)> (1)
91.4930709597867

>  <r_j_Entropy_(cal/mol/K)_298.15K_1.00E+00atm> (1)
86.3387139521773

>  <r_j_Enthalpy_(kcal/mol)_298.15K_1.00E+00atm> (1)
5.66868903242403

>  <r_j_Free_Energy_(kcal/mol)_298.15K_1.00E+00atm> (1)
-20.0731985324176

>  <r_j_Internal_Energy_(kcal/mol)_298.15K_1.00E+00atm> (1)
5.07620344359676

>  <r_j_Heat_Capacity_(cal/mol/K)_298.15K_1.00E+00atm> (1)
29.3264255165052

>  <r_j_ln(Q)_298.15K_1.00E+00atm> (1)
33.8796401312463

>  <r_j_Total_Internal_Energy_(au)_298.15K_1.00E+00atm> (1)
-347.009024398821

>  <r_j_Total_Enthalpy_(au)_298.15K_1.00E+00atm> (1)
-347.008080212928

>  <r_j_Total_Free_Energy_(au)_298.15K_1.00E+00atm> (1)
-347.049102522225

>  <r_lp_tautomer_probability> (1)
1

>  <r_epik_Ionization_Penalty> (1)
  0.0000

>  <r_epik_Ionization_Penalty_Charging> (1)
  0.0000

>  <r_epik_Ionization_Penalty_Neutral> (1)
  0.0000

>  <r_epik_State_Penalty> (1)
  0.0000

>  <r_epik_Charging_Adjusted_Penalty> (1)
0

>  <i_epik_Tot_Q> (1)
0

>  <i_epik_Tot_abs_Q> (1)
0

>  <s_lp_Force_Field> (1)
S-OPLS

>  <r_lp_Energy> (1)
-1.71255

>  <b_lp_Chiralities_Consistent> (1)
1

>  <s_epik_Chemistry_Notes> (1)
This compound has an ester and may undergo hydrolysis at high or low pH.

$$$$
