7923_Maleic anhydride
                    3D
 Schrodinger Suite 2021-3.
  9  9  0  0  1  0            999 V2000
   -5.5714   -6.6816   -0.0504 C   0  0  0  0  0  0
   -6.2944   -7.0414   -1.1138 C   0  0  0  0  0  0
   -7.6320   -7.4940   -0.6331 C   0  0  0  0  0  0
   -8.5730   -7.8957   -1.2556 O   0  0  0  0  0  0
   -7.6430   -7.3775    0.7551 O   0  0  0  0  0  0
   -6.4073   -6.8846    1.1684 C   0  0  0  0  0  0
   -6.1424   -6.6864    2.3194 O   0  0  0  0  0  0
   -4.5598   -6.3028    0.0041 H   0  0  0  0  0  0
   -6.0333   -7.0361   -2.1634 H   0  0  0  0  0  0
  1  6  1  0  0  0
  1  2  2  0  0  0
  1  8  1  0  0  0
  2  3  1  0  0  0
  2  9  1  0  0  0
  3  4  2  0  0  0
  3  5  1  0  0  0
  5  6  1  0  0  0
  6  7  2  0  0  0
M  END
>  <i_m_Spin_multiplicity> (1)
1

>  <s_j_Task> (1)
Single Point

>  <s_j_QM_Method> (1)
DFT(b3lyp-d3)

>  <s_j_QM_Basis> (1)
cc-pvtz(-f)

>  <i_j_Number_of_canonical_orbitals> (1)
178

>  <i_j_Geometry_convergence_category> (1)
0

>  <r_j_Gas_Phase_Energy> (1)
-379.426421009749

>  <r_j_Final_Energy> (1)
-379.426421009749

>  <r_j_HOMO> (1)
-0.351418225505951

>  <r_j_LUMO> (1)
-0.166348261802097

>  <r_j_Polarizability> (1)
49.9700779114327

>  <r_j_QM_Dipole_(debye)> (1)
4.12835963638153

>  <r_j_QM_Dipole_X_(debye)> (1)
3.1643505498201

>  <r_j_QM_Dipole_Y_(debye)> (1)
0.953993744536984

>  <r_j_QM_Dipole_Z_(debye)> (1)
-2.47389062420751

>  <r_j_Lowest_Frequency_(cm-1)> (1)
184.188088190195

>  <r_j_Highest_Frequency_(cm-1)> (1)
3214.0840162048

>  <r_j_2nd_Lowest_Frequency_(cm-1)> (1)
295.761489343565

>  <i_j_Num_Negative_Frequencies> (1)
0

>  <r_j_Zero_Point_Energy_(kcal/mol)> (1)
34.7181040257163

>  <r_j_Entropy_(cal/mol/K)_298.15K_1.00E+00atm> (1)
73.637448293998

>  <r_j_Enthalpy_(kcal/mol)_298.15K_1.00E+00atm> (1)
3.78690200119425

>  <r_j_Free_Energy_(kcal/mol)_298.15K_1.00E+00atm> (1)
-18.1681032076612

>  <r_j_Internal_Energy_(kcal/mol)_298.15K_1.00E+00atm> (1)
3.19441641236698

>  <r_j_Heat_Capacity_(cal/mol/K)_298.15K_1.00E+00atm> (1)
18.4139752336665

>  <r_j_ln(Q)_298.15K_1.00E+00atm> (1)
30.6642111643963

>  <r_j_Total_Internal_Energy_(au)_298.15K_1.00E+00atm> (1)
-379.366003562283

>  <r_j_Total_Enthalpy_(au)_298.15K_1.00E+00atm> (1)
-379.365059376391

>  <r_j_Total_Free_Energy_(au)_298.15K_1.00E+00atm> (1)
-379.400046904482

>  <r_lp_tautomer_probability> (1)
1

>  <r_epik_Ionization_Penalty> (1)
  0.0000

>  <r_epik_Ionization_Penalty_Charging> (1)
  0.0000

>  <r_epik_Ionization_Penalty_Neutral> (1)
  0.0000

>  <r_epik_State_Penalty> (1)
  0.0000

>  <r_epik_Charging_Adjusted_Penalty> (1)
0

>  <i_epik_Tot_Q> (1)
0

>  <i_epik_Tot_abs_Q> (1)
0

>  <s_lp_Force_Field> (1)
S-OPLS

>  <r_lp_Energy> (1)
-1.35037

>  <b_lp_Chiralities_Consistent> (1)
1

$$$$
