7945_Ethyl isovalerate
                    3D
 Schrodinger Suite 2021-3.
 23 22  0  0  1  0            999 V2000
   -2.5527   -2.7084   -0.5754 C   0  0  0  0  0  0
   -2.1225   -1.3486   -0.0613 C   0  0  0  0  0  0
   -0.6756   -1.3466   -0.0143 O   0  0  0  0  0  0
   -0.1053   -0.2078    0.4369 C   0  0  0  0  0  0
   -0.7424    0.7612    0.7952 O   0  0  0  0  0  0
    1.4075   -0.3032    0.4035 C   0  0  0  0  0  0
    2.1028    0.7416    1.2893 C   0  0  0  0  0  0
    3.6134    0.7471    1.0234 C   0  0  0  0  0  0
    1.8027    0.4971    2.7746 C   0  0  0  0  0  0
   -3.6446   -2.7601   -0.6282 H   0  0  0  0  0  0
   -2.2001   -3.5029    0.0886 H   0  0  0  0  0  0
   -2.1485   -2.8911   -1.5752 H   0  0  0  0  0  0
   -2.4580   -0.5343   -0.7120 H   0  0  0  0  0  0
   -2.5091   -1.1440    0.9425 H   0  0  0  0  0  0
    1.7031   -1.3217    0.6816 H   0  0  0  0  0  0
    1.7068   -0.1787   -0.6464 H   0  0  0  0  0  0
    1.6910    1.7214    1.0177 H   0  0  0  0  0  0
    4.0592   -0.2241    1.2719 H   0  0  0  0  0  0
    4.1147    1.5063    1.6328 H   0  0  0  0  0  0
    3.8376    0.9582   -0.0281 H   0  0  0  0  0  0
    2.1773   -0.4849    3.0905 H   0  0  0  0  0  0
    0.7277    0.5366    2.9693 H   0  0  0  0  0  0
    2.2868    1.2543    3.4001 H   0  0  0  0  0  0
  1  2  1  0  0  0
  1 10  1  0  0  0
  1 11  1  0  0  0
  1 12  1  0  0  0
  2  3  1  0  0  0
  2 13  1  0  0  0
  2 14  1  0  0  0
  3  4  1  0  0  0
  4  5  2  0  0  0
  4  6  1  0  0  0
  6  7  1  0  0  0
  6 15  1  0  0  0
  6 16  1  0  0  0
  7  8  1  0  0  0
  7  9  1  0  0  0
  7 17  1  0  0  0
  8 18  1  0  0  0
  8 19  1  0  0  0
  8 20  1  0  0  0
  9 21  1  0  0  0
  9 22  1  0  0  0
  9 23  1  0  0  0
M  END
> <i_m_Spin_multiplicity>
1

> <s_j_Task>
Single Point

> <s_j_QM_Method>
DFT(b3lyp-d3)

> <s_j_QM_Basis>
cc-pvtz(-f)

> <i_j_Number_of_canonical_orbitals>
332

> <i_j_Geometry_convergence_category>
0

> <r_j_Gas_Phase_Energy>
-425.818923545718

> <r_j_Final_Energy>
-425.818923545718

> <r_j_HOMO>
-0.281467277818906

> <r_j_LUMO>
-0.000924617124420951

> <r_j_Polarizability>
92.2200274811092

> <r_j_QM_Dipole_(debye)>
1.69847790816326

> <r_j_QM_Dipole_X_(debye)>
0.18631668480442

> <r_j_QM_Dipole_Y_(debye)>
-1.53420895012643

> <r_j_QM_Dipole_Z_(debye)>
-0.704497121948771

> <r_j_Lowest_Frequency_(cm-1)>
62.1324017483148

> <r_j_Highest_Frequency_(cm-1)>
3073.88495756399

> <r_j_2nd_Lowest_Frequency_(cm-1)>
106.18986280702

> <i_j_Num_Negative_Frequencies>
0

> <r_j_Zero_Point_Energy_(kcal/mol)>
127.438741796421

> <r_j_Entropy_(cal/mol/K)_298.15K_1.00E+00atm>
98.2726941732613

> <r_j_Enthalpy_(kcal/mol)_298.15K_1.00E+00atm>
7.14421398706821

> <r_j_Free_Energy_(kcal/mol)_298.15K_1.00E+00atm>
-22.1557897806896

> <r_j_Internal_Energy_(kcal/mol)_298.15K_1.00E+00atm>
6.55172839824093

> <r_j_Heat_Capacity_(cal/mol/K)_298.15K_1.00E+00atm>
38.6055501132271

> <r_j_ln(Q)_298.15K_1.00E+00atm>
37.3946475635691

> <r_j_Total_Internal_Energy_(au)_298.15K_1.00E+00atm>
-425.605396138403

> <r_j_Total_Enthalpy_(au)_298.15K_1.00E+00atm>
-425.604451952511

> <r_j_Total_Free_Energy_(au)_298.15K_1.00E+00atm>
-425.651144480941

> <r_lp_tautomer_probability>
1

> <r_epik_Ionization_Penalty>
  0.0000

> <r_epik_Ionization_Penalty_Charging>
  0.0000

> <r_epik_Ionization_Penalty_Neutral>
  0.0000

> <r_epik_State_Penalty>
  0.0000

> <r_epik_Charging_Adjusted_Penalty>
0

> <i_epik_Tot_Q>
0

> <i_epik_Tot_abs_Q>
0

> <s_lp_Force_Field>
S-OPLS

> <r_lp_Energy>
0.13607

> <b_lp_Chiralities_Consistent>
1

> <s_epik_Chemistry_Notes>
This compound has an ester and may undergo hydrolysis at high or low pH.

$$$$
