7947_1,3,5-trimethylbenzene
                    3D
 Schrodinger Suite 2021-3.
 21 21  0  0  1  0            999 V2000
   -0.0294    0.0033    0.0000 C   0  0  0  0  0  0
    1.4816    0.0107    0.0000 C   0  0  0  0  0  0
    2.2004    1.2051    0.0000 C   0  0  0  0  0  0
    3.6032    1.2142    0.0000 C   0  0  0  0  0  0
    4.2781   -0.0054    0.0000 C   0  0  0  0  0  0
    3.5846   -1.2249    0.0000 C   0  0  0  0  0  0
    2.1909   -1.1996    0.0000 C   0  0  0  0  0  0
    4.3466   -2.5298    0.0000 C   0  0  0  0  0  0
    4.3524    2.5266    0.0000 C   0  0  0  0  0  0
   -0.4370    1.0181    0.0000 H   0  0  0  0  0  0
   -0.4230   -0.5168    0.8812 H   0  0  0  0  0  0
   -0.4230   -0.5168   -0.8813 H   0  0  0  0  0  0
    1.6627    2.1515    0.0000 H   0  0  0  0  0  0
    5.3666   -0.0132    0.0000 H   0  0  0  0  0  0
    1.6399   -2.1384    0.0001 H   0  0  0  0  0  0
    3.6717   -3.3904    0.0000 H   0  0  0  0  0  0
    4.9939   -2.6106    0.8812 H   0  0  0  0  0  0
    4.9938   -2.6105   -0.8813 H   0  0  0  0  0  0
    5.4351    2.3720    0.0000 H   0  0  0  0  0  0
    4.0989    3.1275    0.8813 H   0  0  0  0  0  0
    4.0989    3.1275   -0.8813 H   0  0  0  0  0  0
  1  2  1  0  0  0
  1 10  1  0  0  0
  1 11  1  0  0  0
  1 12  1  0  0  0
  2  7  1  0  0  0
  2  3  2  0  0  0
  3  4  1  0  0  0
  3 13  1  0  0  0
  4  5  2  0  0  0
  4  9  1  0  0  0
  5  6  1  0  0  0
  5 14  1  0  0  0
  6  7  2  0  0  0
  6  8  1  0  0  0
  7 15  1  0  0  0
  8 16  1  0  0  0
  8 17  1  0  0  0
  8 18  1  0  0  0
  9 19  1  0  0  0
  9 20  1  0  0  0
  9 21  1  0  0  0
M  END
>  <i_m_Spin_multiplicity> (1)
1

>  <s_j_Task> (1)
Single Point

>  <s_j_QM_Method> (1)
DFT(b3lyp-d3)

>  <s_j_QM_Basis> (1)
cc-pvtz(-f)

>  <i_j_Number_of_canonical_orbitals> (1)
309

>  <i_j_Geometry_convergence_category> (1)
0

>  <r_j_Gas_Phase_Energy> (1)
-350.32793231289

>  <r_j_Final_Energy> (1)
-350.32793231289

>  <r_j_HOMO> (1)
-0.235882102710223

>  <r_j_LUMO> (1)
-0.00554771292509242

>  <r_j_Polarizability> (1)
104.556286710624

>  <r_j_QM_Dipole_(debye)> (1)
0.00137076340976919

>  <r_j_QM_Dipole_X_(debye)> (1)
0.000364386095864458

>  <r_j_QM_Dipole_Y_(debye)> (1)
0.00132038868013968

>  <r_j_QM_Dipole_Z_(debye)> (1)
5.28093936880738e-05

>  <r_j_Lowest_Frequency_(cm-1)> (1)
176.639507254884

>  <r_j_Highest_Frequency_(cm-1)> (1)
3106.06539619512

>  <r_j_2nd_Lowest_Frequency_(cm-1)> (1)
185.854958481531

>  <i_j_Num_Negative_Frequencies> (1)
0

>  <r_j_Zero_Point_Energy_(kcal/mol)> (1)
114.385365340257

>  <r_j_Entropy_(cal/mol/K)_298.15K_1.00E+00atm> (1)
88.1927484254588

>  <r_j_Enthalpy_(kcal/mol)_298.15K_1.00E+00atm> (1)
6.21154562960587

>  <r_j_Free_Energy_(kcal/mol)_298.15K_1.00E+00atm> (1)
-20.0831223134447

>  <r_j_Internal_Energy_(kcal/mol)_298.15K_1.00E+00atm> (1)
5.6190600407786

>  <r_j_Heat_Capacity_(cal/mol/K)_298.15K_1.00E+00atm> (1)
34.7369295938518

>  <r_j_ln(Q)_298.15K_1.00E+00atm> (1)
33.8963895361503

>  <r_j_Total_Internal_Energy_(au)_298.15K_1.00E+00atm> (1)
-350.136693086842

>  <r_j_Total_Enthalpy_(au)_298.15K_1.00E+00atm> (1)
-350.135748900949

>  <r_j_Total_Free_Energy_(au)_298.15K_1.00E+00atm> (1)
-350.177652121857

>  <r_lp_tautomer_probability> (1)
1

>  <r_epik_Ionization_Penalty> (1)
  0.0000

>  <r_epik_Ionization_Penalty_Charging> (1)
  0.0000

>  <r_epik_Ionization_Penalty_Neutral> (1)
  0.0000

>  <r_epik_State_Penalty> (1)
  0.0000

>  <r_epik_Charging_Adjusted_Penalty> (1)
0

>  <i_epik_Tot_Q> (1)
0

>  <i_epik_Tot_abs_Q> (1)
0

>  <s_lp_Force_Field> (1)
S-OPLS

>  <r_lp_Energy> (1)
2.672943

>  <b_lp_Chiralities_Consistent> (1)
1

$$$$
