7964_Chlorobenzene
                    3D
 Schrodinger Suite 2021-3.
 12 12  0  0  1  0            999 V2000
    6.3897   -3.3160   -4.8049 C   0  0  0  0  0  0
    5.8321   -2.8091   -3.6305 C   0  0  0  0  0  0
    6.6358   -2.1762   -2.6817 C   0  0  0  0  0  0
    8.0031   -2.0589   -2.9262 C   0  0  0  0  0  0
    8.5780   -2.5590   -4.0934 C   0  0  0  0  0  0
    7.7606   -3.1893   -5.0323 C   0  0  0  0  0  0
    9.0267   -1.2614   -1.7344 Cl  0  0  0  0  0  0
    5.7590   -3.8074   -5.5393 H   0  0  0  0  0  0
    4.7661   -2.9040   -3.4465 H   0  0  0  0  0  0
    6.2128   -1.7788   -1.7658 H   0  0  0  0  0  0
    9.6443   -2.4551   -4.2602 H   0  0  0  0  0  0
    8.2017   -3.5813   -5.9439 H   0  0  0  0  0  0
  1  6  1  0  0  0
  1  2  2  0  0  0
  1  8  1  0  0  0
  2  3  1  0  0  0
  2  9  1  0  0  0
  3  4  2  0  0  0
  3 10  1  0  0  0
  4  5  1  0  0  0
  4  7  1  0  0  0
  5  6  2  0  0  0
  5 11  1  0  0  0
  6 12  1  0  0  0
M  END
>  <i_m_Spin_multiplicity> (1)
1

>  <s_j_Task> (1)
Single Point

>  <s_j_QM_Method> (1)
DFT(b3lyp-d3)

>  <s_j_QM_Basis> (1)
cc-pvtz(-f)

>  <i_j_Number_of_canonical_orbitals> (1)
207

>  <i_j_Geometry_convergence_category> (1)
4

>  <r_j_Gas_Phase_Energy> (1)
-691.961484667924

>  <r_j_Final_Energy> (1)
-691.961484667924

>  <r_j_HOMO> (1)
-0.248289792700264

>  <r_j_LUMO> (1)
-0.0212458831634693

>  <r_j_Polarizability> (1)
76.1233865937021

>  <r_j_QM_Dipole_(debye)> (1)
1.7928743655886

>  <r_j_QM_Dipole_X_(debye)> (1)
-1.04158348332042

>  <r_j_QM_Dipole_Y_(debye)> (1)
-0.811522144545601

>  <r_j_QM_Dipole_Z_(debye)> (1)
-1.21282073983377

>  <r_j_Lowest_Frequency_(cm-1)> (1)
198.323152585479

>  <r_j_Highest_Frequency_(cm-1)> (1)
3163.96647924235

>  <r_j_2nd_Lowest_Frequency_(cm-1)> (1)
302.738385814781

>  <i_j_Num_Negative_Frequencies> (1)
0

>  <r_j_Zero_Point_Energy_(kcal/mol)> (1)
56.8017621866814

>  <r_j_Entropy_(cal/mol/K)_298.15K_1.00E+00atm> (1)
75.9827917755808

>  <r_j_Enthalpy_(kcal/mol)_298.15K_1.00E+00atm> (1)
4.00047900369075

>  <r_j_Free_Energy_(kcal/mol)_298.15K_1.00E+00atm> (1)
-18.6537903641987

>  <r_j_Internal_Energy_(kcal/mol)_298.15K_1.00E+00atm> (1)
3.40799341486347

>  <r_j_Heat_Capacity_(cal/mol/K)_298.15K_1.00E+00atm> (1)
20.7826420086152

>  <r_j_ln(Q)_298.15K_1.00E+00atm> (1)
31.483956261486

>  <r_j_Total_Internal_Energy_(au)_298.15K_1.00E+00atm> (1)
-691.865534314216

>  <r_j_Total_Enthalpy_(au)_298.15K_1.00E+00atm> (1)
-691.864590128324

>  <r_j_Total_Free_Energy_(au)_298.15K_1.00E+00atm> (1)
-691.900692004791

>  <r_lp_tautomer_probability> (1)
1

>  <r_epik_Ionization_Penalty> (1)
  0.0000

>  <r_epik_Ionization_Penalty_Charging> (1)
  0.0000

>  <r_epik_Ionization_Penalty_Neutral> (1)
  0.0000

>  <r_epik_State_Penalty> (1)
  0.0000

>  <r_epik_Charging_Adjusted_Penalty> (1)
0

>  <i_epik_Tot_Q> (1)
0

>  <i_epik_Tot_abs_Q> (1)
0

>  <s_lp_Force_Field> (1)
S-OPLS

>  <r_lp_Energy> (1)
8.19951

>  <b_lp_Chiralities_Consistent> (1)
1

$$$$
