7966_Cyclohexanol
                    3D
 Schrodinger Suite 2021-3.
 19 19  0  0  1  0            999 V2000
   -2.5911   -1.4803    0.0001 C   0  0  0  0  0  0
   -2.0619   -0.7916    1.2680 C   0  0  0  0  0  0
   -0.5262   -0.7181    1.2642 C   0  0  0  0  0  0
    0.0044   -0.0286    0.0000 C   0  0  0  0  0  0
   -0.5263   -0.7181   -1.2642 C   0  0  0  0  0  0
   -2.0621   -0.7915   -1.2679 C   0  0  0  0  0  0
    1.4277    0.0638   -0.0001 O   0  0  0  0  0  0
   -3.6874   -1.4879    0.0002 H   0  0  0  0  0  0
   -2.2692   -2.5315    0.0000 H   0  0  0  0  0  0
   -2.4701    0.2277    1.3211 H   0  0  0  0  0  0
   -2.4132   -1.3143    2.1650 H   0  0  0  0  0  0
   -0.1501   -0.1913    2.1478 H   0  0  0  0  0  0
   -0.1133   -1.7386    1.3005 H   0  0  0  0  0  0
   -0.3403    1.0145   -0.0001 H   0  0  0  0  0  0
   -0.1502   -0.1914   -2.1479 H   0  0  0  0  0  0
   -0.1136   -1.7387   -1.3005 H   0  0  0  0  0  0
   -2.4135   -1.3142   -2.1648 H   0  0  0  0  0  0
   -2.4701    0.2277   -1.3209 H   0  0  0  0  0  0
    1.7731   -0.8398    0.0001 H   0  0  0  0  0  0
  1  6  1  0  0  0
  1  2  1  0  0  0
  1  8  1  0  0  0
  1  9  1  0  0  0
  2  3  1  0  0  0
  2 10  1  0  0  0
  2 11  1  0  0  0
  3  4  1  0  0  0
  3 12  1  0  0  0
  3 13  1  0  0  0
  4  5  1  0  0  0
  4  7  1  0  0  0
  4 14  1  0  0  0
  5  6  1  0  0  0
  5 15  1  0  0  0
  5 16  1  0  0  0
  6 17  1  0  0  0
  6 18  1  0  0  0
  7 19  1  0  0  0
M  END
>  <i_m_Spin_multiplicity> (1)
1

>  <s_j_Task> (1)
Single Point

>  <s_j_QM_Method> (1)
DFT(b3lyp-d3)

>  <s_j_QM_Basis> (1)
cc-pvtz(-f)

>  <i_j_Number_of_canonical_orbitals> (1)
268

>  <i_j_Geometry_convergence_category> (1)
0

>  <r_j_Gas_Phase_Energy> (1)
-311.21988783129

>  <r_j_Final_Energy> (1)
-311.21988783129

>  <r_j_HOMO> (1)
-0.268441356047901

>  <r_j_LUMO> (1)
0.0224820644829406

>  <r_j_Polarizability> (1)
73.2965310320076

>  <r_j_QM_Dipole_(debye)> (1)
1.70259808985808

>  <r_j_QM_Dipole_X_(debye)> (1)
-1.08250931415125

>  <r_j_QM_Dipole_Y_(debye)> (1)
-1.31415892360867

>  <r_j_QM_Dipole_Z_(debye)> (1)
0.000404801025140234

>  <r_j_Lowest_Frequency_(cm-1)> (1)
180.820184720232

>  <r_j_Highest_Frequency_(cm-1)> (1)
3741.05420896696

>  <r_j_2nd_Lowest_Frequency_(cm-1)> (1)
257.658604784575

>  <i_j_Num_Negative_Frequencies> (1)
0

>  <r_j_Zero_Point_Energy_(kcal/mol)> (1)
109.238942811884

>  <r_j_Entropy_(cal/mol/K)_298.15K_1.00E+00atm> (1)
79.2452260508612

>  <r_j_Enthalpy_(kcal/mol)_298.15K_1.00E+00atm> (1)
4.7503843914836

>  <r_j_Free_Energy_(kcal/mol)_298.15K_1.00E+00atm> (1)
-18.8765797555807

>  <r_j_Internal_Energy_(kcal/mol)_298.15K_1.00E+00atm> (1)
4.15789880265632

>  <r_j_Heat_Capacity_(cal/mol/K)_298.15K_1.00E+00atm> (1)
26.790040845984

>  <r_j_ln(Q)_298.15K_1.00E+00atm> (1)
31.8599812578458

>  <r_j_Total_Internal_Energy_(au)_298.15K_1.00E+00atm> (1)
-311.0391784603

>  <r_j_Total_Enthalpy_(au)_298.15K_1.00E+00atm> (1)
-311.038234274407

>  <r_j_Total_Free_Energy_(au)_298.15K_1.00E+00atm> (1)
-311.075886238683

>  <r_lp_tautomer_probability> (1)
1

>  <r_epik_Ionization_Penalty> (1)
  0.0000

>  <r_epik_Ionization_Penalty_Charging> (1)
  0.0000

>  <r_epik_Ionization_Penalty_Neutral> (1)
  0.0000

>  <r_epik_State_Penalty> (1)
  0.0000

>  <r_epik_Charging_Adjusted_Penalty> (1)
0

>  <i_epik_Tot_Q> (1)
0

>  <i_epik_Tot_abs_Q> (1)
0

>  <s_lp_Force_Field> (1)
S-OPLS

>  <r_lp_Energy> (1)
3.85683

>  <b_lp_Chiralities_Consistent> (1)
1

$$$$
