7967_Cyclohexanone
                    3D
 Schrodinger Suite 2021-3.
 17 17  0  0  1  0            999 V2000
   -0.9401   -1.0659   -2.3041 C   0  0  0  0  0  0
   -0.0633   -0.4975   -1.1789 C   0  0  0  0  0  0
    1.4337   -0.7688   -1.4401 C   0  0  0  0  0  0
    1.6950   -2.2447   -1.7141 C   0  0  0  0  0  0
    2.5590   -2.8744   -1.1340 O   0  0  0  0  0  0
    0.7884   -2.8742   -2.7646 C   0  0  0  0  0  0
   -0.6989   -2.5717   -2.4836 C   0  0  0  0  0  0
   -0.7093   -0.5452   -3.2444 H   0  0  0  0  0  0
   -1.9981   -0.8761   -2.0905 H   0  0  0  0  0  0
   -0.2284    0.5793   -1.0636 H   0  0  0  0  0  0
   -0.3498   -0.9633   -0.2266 H   0  0  0  0  0  0
    1.7472   -0.2065   -2.3321 H   0  0  0  0  0  0
    2.0641   -0.4534   -0.6048 H   0  0  0  0  0  0
    1.0618   -2.4423   -3.7387 H   0  0  0  0  0  0
    0.9934   -3.9471   -2.8028 H   0  0  0  0  0  0
   -1.0040   -3.0985   -1.5695 H   0  0  0  0  0  0
   -1.3163   -2.9702   -3.2961 H   0  0  0  0  0  0
  1  7  1  0  0  0
  1  2  1  0  0  0
  1  8  1  0  0  0
  1  9  1  0  0  0
  2  3  1  0  0  0
  2 10  1  0  0  0
  2 11  1  0  0  0
  3  4  1  0  0  0
  3 12  1  0  0  0
  3 13  1  0  0  0
  4  5  2  0  0  0
  4  6  1  0  0  0
  6  7  1  0  0  0
  6 14  1  0  0  0
  6 15  1  0  0  0
  7 16  1  0  0  0
  7 17  1  0  0  0
M  END
>  <i_m_Spin_multiplicity> (1)
1

>  <s_j_Task> (1)
Single Point

>  <s_j_QM_Method> (1)
DFT(b3lyp-d3)

>  <s_j_QM_Basis> (1)
cc-pvtz(-f)

>  <i_j_Number_of_canonical_orbitals> (1)
249

>  <i_j_Geometry_convergence_category> (1)
3

>  <r_j_Gas_Phase_Energy> (1)
-310.009470947192

>  <r_j_Final_Energy> (1)
-310.009470947192

>  <r_j_HOMO> (1)
-0.246786811211035

>  <r_j_LUMO> (1)
-0.0251703833586609

>  <r_j_Polarizability> (1)
69.7334388678529

>  <r_j_QM_Dipole_(debye)> (1)
3.23347541228946

>  <r_j_QM_Dipole_X_(debye)> (1)
-2.43717342155087

>  <r_j_QM_Dipole_Y_(debye)> (1)
1.61544934314237

>  <r_j_QM_Dipole_Z_(debye)> (1)
-1.3805333660971

>  <r_j_Lowest_Frequency_(cm-1)> (1)
127.598421591798

>  <r_j_Highest_Frequency_(cm-1)> (1)
3059.6932688288

>  <r_j_2nd_Lowest_Frequency_(cm-1)> (1)
215.601117801729

>  <i_j_Num_Negative_Frequencies> (1)
0

>  <r_j_Zero_Point_Energy_(kcal/mol)> (1)
94.3623618816425

>  <r_j_Entropy_(cal/mol/K)_298.15K_1.00E+00atm> (1)
78.3258841038114

>  <r_j_Enthalpy_(kcal/mol)_298.15K_1.00E+00atm> (1)
4.52260905899556

>  <r_j_Free_Energy_(kcal/mol)_298.15K_1.00E+00atm> (1)
-18.8302532865558

>  <r_j_Internal_Energy_(kcal/mol)_298.15K_1.00E+00atm> (1)
3.93012347016828

>  <r_j_Heat_Capacity_(cal/mol/K)_298.15K_1.00E+00atm> (1)
24.4617911679073

>  <r_j_ln(Q)_298.15K_1.00E+00atm> (1)
31.7817912226813

>  <r_j_Total_Internal_Energy_(au)_298.15K_1.00E+00atm> (1)
-309.852831900212

>  <r_j_Total_Enthalpy_(au)_298.15K_1.00E+00atm> (1)
-309.851887714319

>  <r_j_Total_Free_Energy_(au)_298.15K_1.00E+00atm> (1)
-309.889102869567

>  <r_lp_tautomer_probability> (1)
1

>  <r_epik_Ionization_Penalty> (1)
  0.0000

>  <r_epik_Ionization_Penalty_Charging> (1)
  0.0000

>  <r_epik_Ionization_Penalty_Neutral> (1)
  0.0000

>  <r_epik_State_Penalty> (1)
  0.0000

>  <r_epik_Charging_Adjusted_Penalty> (1)
0

>  <i_epik_Tot_Q> (1)
0

>  <i_epik_Tot_abs_Q> (1)
0

>  <s_lp_Force_Field> (1)
S-OPLS

>  <r_lp_Energy> (1)
-0.386512

>  <b_lp_Chiralities_Consistent> (1)
1

$$$$
