79735_Propionylsyringol
                    3D
 Schrodinger Suite 2021-3.
 29 29  0  0  1  0            999 V2000
   -2.3431   -1.1111    0.0000 C   0  0  0  0  0  0
   -0.8306   -1.3200   -0.0001 C   0  0  0  0  0  0
   -0.0540   -0.0038    0.0001 C   0  0  0  0  0  0
   -0.6514    1.0654    0.0004 O   0  0  0  0  0  0
    1.4383   -0.0485    0.0000 C   0  0  0  0  0  0
    2.1557   -1.2546    0.0000 C   0  0  0  0  0  0
    3.5464   -1.2160   -0.0001 C   0  0  0  0  0  0
    4.2406    0.0057   -0.0001 C   0  0  0  0  0  0
    3.5177    1.2133    0.0000 C   0  0  0  0  0  0
    2.1253    1.1749    0.0000 C   0  0  0  0  0  0
    4.2776    2.3424   -0.0001 O   0  0  0  0  0  0
    3.6025    3.5922    0.0000 C   0  0  0  0  0  0
    5.5956    0.0371   -0.0001 O   0  0  0  0  0  0
    4.3821   -2.3094   -0.0001 O   0  0  0  0  0  0
    3.7947   -3.6021    0.0001 C   0  0  0  0  0  0
   -2.8667   -2.0717   -0.0002 H   0  0  0  0  0  0
   -2.6550   -0.5414   -0.8790 H   0  0  0  0  0  0
   -2.6550   -0.5416    0.8790 H   0  0  0  0  0  0
   -0.5177   -1.9058    0.8749 H   0  0  0  0  0  0
   -0.5178   -1.9056   -0.8752 H   0  0  0  0  0  0
    1.6400   -2.2052    0.0000 H   0  0  0  0  0  0
    1.5325    2.0802    0.0000 H   0  0  0  0  0  0
    4.3843    4.3531    0.0000 H   0  0  0  0  0  0
    2.9763    3.7145    0.8934 H   0  0  0  0  0  0
    2.9763    3.7146   -0.8933 H   0  0  0  0  0  0
    5.8965   -0.8853   -0.0001 H   0  0  0  0  0  0
    4.6223   -4.3129    0.0001 H   0  0  0  0  0  0
    3.1788   -3.7620   -0.8943 H   0  0  0  0  0  0
    3.1789   -3.7618    0.8946 H   0  0  0  0  0  0
  1  2  1  0  0  0
  1 16  1  0  0  0
  1 17  1  0  0  0
  1 18  1  0  0  0
  2  3  1  0  0  0
  2 19  1  0  0  0
  2 20  1  0  0  0
  3  4  2  0  0  0
  3  5  1  0  0  0
  5 10  1  0  0  0
  5  6  2  0  0  0
  6  7  1  0  0  0
  6 21  1  0  0  0
  7  8  2  0  0  0
  7 14  1  0  0  0
  8  9  1  0  0  0
  8 13  1  0  0  0
  9 10  2  0  0  0
  9 11  1  0  0  0
 10 22  1  0  0  0
 11 12  1  0  0  0
 12 23  1  0  0  0
 12 24  1  0  0  0
 12 25  1  0  0  0
 13 26  1  0  0  0
 14 15  1  0  0  0
 15 27  1  0  0  0
 15 28  1  0  0  0
 15 29  1  0  0  0
M  END
>  <i_m_Spin_multiplicity> (1)
1

>  <s_j_Task> (1)
Single Point

>  <s_j_QM_Method> (1)
DFT(b3lyp-d3)

>  <s_j_QM_Basis> (1)
cc-pvtz(-f)

>  <i_j_Number_of_canonical_orbitals> (1)
464

>  <i_j_Geometry_convergence_category> (1)
0

>  <r_j_Gas_Phase_Energy> (1)
-728.746277439793

>  <r_j_Final_Energy> (1)
-728.746277439793

>  <r_j_HOMO> (1)
-0.217281300749124

>  <r_j_LUMO> (1)
-0.0548162458793373

>  <r_j_Polarizability> (1)
150.634506103268

>  <r_j_QM_Dipole_(debye)> (1)
3.69524961119392

>  <r_j_QM_Dipole_X_(debye)> (1)
1.05285024674291

>  <r_j_QM_Dipole_Y_(debye)> (1)
-3.54208637667077

>  <r_j_QM_Dipole_Z_(debye)> (1)
-0.000383621587612091

>  <r_j_Lowest_Frequency_(cm-1)> (1)
63.6474397483846

>  <r_j_Highest_Frequency_(cm-1)> (1)
3710.19398984206

>  <r_j_2nd_Lowest_Frequency_(cm-1)> (1)
71.3108020289755

>  <i_j_Num_Negative_Frequencies> (1)
0

>  <r_j_Zero_Point_Energy_(kcal/mol)> (1)
147.845981463658

>  <r_j_Entropy_(cal/mol/K)_298.15K_1.00E+00atm> (1)
118.588749105752

>  <r_j_Enthalpy_(kcal/mol)_298.15K_1.00E+00atm> (1)
9.8240512404061

>  <r_j_Free_Energy_(kcal/mol)_298.15K_1.00E+00atm> (1)
-25.5331843054738

>  <r_j_Internal_Energy_(kcal/mol)_298.15K_1.00E+00atm> (1)
9.23156565157882

>  <r_j_Heat_Capacity_(cal/mol/K)_298.15K_1.00E+00atm> (1)
56.2212954527003

>  <r_j_ln(Q)_298.15K_1.00E+00atm> (1)
43.0950301356907

>  <r_j_Total_Internal_Energy_(au)_298.15K_1.00E+00atm> (1)
-728.495958433268

>  <r_j_Total_Enthalpy_(au)_298.15K_1.00E+00atm> (1)
-728.495014247376

>  <r_j_Total_Free_Energy_(au)_298.15K_1.00E+00atm> (1)
-728.551359589138

>  <r_lp_tautomer_probability> (1)
0.9999

>  <r_epik_Ionization_Penalty> (1)
  0.0083

>  <r_epik_Ionization_Penalty_Charging> (1)
  0.0000

>  <r_epik_Ionization_Penalty_Neutral> (1)
  0.0083

>  <r_epik_State_Penalty> (1)
  0.0062

>  <r_epik_Charging_Adjusted_Penalty> (1)
0.00624971

>  <i_epik_Tot_Q> (1)
0

>  <i_epik_Tot_abs_Q> (1)
0

>  <s_lp_Force_Field> (1)
S-OPLS

>  <r_lp_Energy> (1)
18.7837

>  <b_lp_Chiralities_Consistent> (1)
1

$$$$
