7997_Propyl acetate
                    3D
 Schrodinger Suite 2021-3.
 17 16  0  0  1  0            999 V2000
   -0.5945    1.4310   -0.0003 C   0  0  0  0  0  0
    0.0536    0.0433    0.0002 C   0  0  0  0  0  0
    1.5704    0.1327    0.0002 C   0  0  0  0  0  0
    2.0865   -1.2174    0.0000 O   0  0  0  0  0  0
    3.4331   -1.3301    0.0000 C   0  0  0  0  0  0
    4.1873   -0.3810    0.0002 O   0  0  0  0  0  0
    3.8715   -2.7768   -0.0003 C   0  0  0  0  0  0
   -1.6856    1.3542   -0.0002 H   0  0  0  0  0  0
   -0.3006    2.0069   -0.8850 H   0  0  0  0  0  0
   -0.3005    2.0076    0.8838 H   0  0  0  0  0  0
   -0.2672   -0.5270    0.8797 H   0  0  0  0  0  0
   -0.2670   -0.5276   -0.8791 H   0  0  0  0  0  0
    1.9495    0.6616   -0.8817 H   0  0  0  0  0  0
    1.9495    0.6614    0.8823 H   0  0  0  0  0  0
    3.0240   -3.4623   -0.0004 H   0  0  0  0  0  0
    4.4946   -2.9545    0.8806 H   0  0  0  0  0  0
    4.4945   -2.9542   -0.8813 H   0  0  0  0  0  0
  1  2  1  0  0  0
  1  8  1  0  0  0
  1  9  1  0  0  0
  1 10  1  0  0  0
  2  3  1  0  0  0
  2 11  1  0  0  0
  2 12  1  0  0  0
  3  4  1  0  0  0
  3 13  1  0  0  0
  3 14  1  0  0  0
  4  5  1  0  0  0
  5  6  2  0  0  0
  5  7  1  0  0  0
  7 15  1  0  0  0
  7 16  1  0  0  0
  7 17  1  0  0  0
M  END
>  <i_m_Spin_multiplicity> (1)
1

>  <s_j_Task> (1)
Single Point

>  <s_j_QM_Method> (1)
DFT(b3lyp-d3)

>  <s_j_QM_Basis> (1)
cc-pvtz(-f)

>  <i_j_Number_of_canonical_orbitals> (1)
250

>  <i_j_Geometry_convergence_category> (1)
0

>  <r_j_Gas_Phase_Energy> (1)
-347.156953010833

>  <r_j_Final_Energy> (1)
-347.156953010833

>  <r_j_HOMO> (1)
-0.282668218512187

>  <r_j_LUMO> (1)
-0.00317926107353776

>  <r_j_Polarizability> (1)
68.0373889212604

>  <r_j_QM_Dipole_(debye)> (1)
2.02840671672068

>  <r_j_QM_Dipole_X_(debye)> (1)
-1.80189753138968

>  <r_j_QM_Dipole_Y_(debye)> (1)
-0.931449953981242

>  <r_j_QM_Dipole_Z_(debye)> (1)
-0.000279352252648281

>  <r_j_Lowest_Frequency_(cm-1)> (1)
89.8737648963398

>  <r_j_Highest_Frequency_(cm-1)> (1)
3110.96156744813

>  <r_j_2nd_Lowest_Frequency_(cm-1)> (1)
135.828710986719

>  <i_j_Num_Negative_Frequencies> (1)
0

>  <r_j_Zero_Point_Energy_(kcal/mol)> (1)
91.8196186027662

>  <r_j_Entropy_(cal/mol/K)_298.15K_1.00E+00atm> (1)
87.635826145153

>  <r_j_Enthalpy_(kcal/mol)_298.15K_1.00E+00atm> (1)
5.73156614924697

>  <r_j_Free_Energy_(kcal/mol)_298.15K_1.00E+00atm> (1)
-20.3970554159304

>  <r_j_Internal_Energy_(kcal/mol)_298.15K_1.00E+00atm> (1)
5.1390805604197

>  <r_j_Heat_Capacity_(cal/mol/K)_298.15K_1.00E+00atm> (1)
28.7162623900888

>  <r_j_ln(Q)_298.15K_1.00E+00atm> (1)
34.4262473224082

>  <r_j_Total_Internal_Energy_(au)_298.15K_1.00E+00atm> (1)
-347.002439487454

>  <r_j_Total_Enthalpy_(au)_298.15K_1.00E+00atm> (1)
-347.001495301562

>  <r_j_Total_Free_Energy_(au)_298.15K_1.00E+00atm> (1)
-347.043133910721

>  <r_lp_tautomer_probability> (1)
1

>  <r_epik_Ionization_Penalty> (1)
  0.0000

>  <r_epik_Ionization_Penalty_Charging> (1)
  0.0000

>  <r_epik_Ionization_Penalty_Neutral> (1)
  0.0000

>  <r_epik_State_Penalty> (1)
  0.0000

>  <r_epik_Charging_Adjusted_Penalty> (1)
0

>  <i_epik_Tot_Q> (1)
0

>  <i_epik_Tot_abs_Q> (1)
0

>  <s_lp_Force_Field> (1)
S-OPLS

>  <r_lp_Energy> (1)
0.460812

>  <b_lp_Chiralities_Consistent> (1)
1

>  <s_epik_Chemistry_Notes> (1)
This compound has an ester and may undergo hydrolysis at high or low pH.

$$$$
