79985_3-ethyloctane
                    3D
 Schrodinger Suite 2021-3.
 32 31  0  0  1  0            999 V2000
   -4.2073    2.9271    0.1012 C   0  0  0  0  0  0
   -2.6782    2.9076    0.0170 C   0  0  0  0  0  0
   -2.0952    1.4898    0.0011 C   0  0  0  0  0  0
   -0.5647    1.4633   -0.0877 C   0  0  0  0  0  0
    0.0074    0.0397   -0.1273 C   0  0  0  0  0  0
    1.5464   -0.0601   -0.0720 C   0  0  0  0  0  0
    2.1981    0.6320   -1.2887 C   0  0  0  0  0  0
    3.7283    0.7242   -1.2438 C   0  0  0  0  0  0
    2.0097   -1.5275    0.0516 C   0  0  0  0  0  0
    1.5416   -2.2541    1.3185 C   0  0  0  0  0  0
   -4.5978    3.9501    0.1101 H   0  0  0  0  0  0
   -4.5583    2.4278    1.0118 H   0  0  0  0  0  0
   -4.6553    2.4063   -0.7530 H   0  0  0  0  0  0
   -2.3528    3.4416   -0.8864 H   0  0  0  0  0  0
   -2.2551    3.4625    0.8656 H   0  0  0  0  0  0
   -2.4194    0.9532    0.9045 H   0  0  0  0  0  0
   -2.5182    0.9335   -0.8481 H   0  0  0  0  0  0
   -0.2561    2.0252   -0.9780 H   0  0  0  0  0  0
   -0.1414    2.0006    0.7734 H   0  0  0  0  0  0
   -0.4181   -0.5152    0.7175 H   0  0  0  0  0  0
   -0.3493   -0.4717   -1.0342 H   0  0  0  0  0  0
    1.8834    0.4718    0.8334 H   0  0  0  0  0  0
    1.8858    0.1060   -2.2027 H   0  0  0  0  0  0
    1.8003    1.6489   -1.3752 H   0  0  0  0  0  0
    4.1065    1.3243   -2.0780 H   0  0  0  0  0  0
    4.2077   -0.2572   -1.3064 H   0  0  0  0  0  0
    4.0646    1.1989   -0.3144 H   0  0  0  0  0  0
    1.6726   -2.0802   -0.8374 H   0  0  0  0  0  0
    3.1046   -1.5581    0.0288 H   0  0  0  0  0  0
    2.0017   -3.2450    1.3909 H   0  0  0  0  0  0
    0.4572   -2.3972    1.3404 H   0  0  0  0  0  0
    1.8204   -1.6923    2.2178 H   0  0  0  0  0  0
  1  2  1  0  0  0
  1 11  1  0  0  0
  1 12  1  0  0  0
  1 13  1  0  0  0
  2  3  1  0  0  0
  2 14  1  0  0  0
  2 15  1  0  0  0
  3  4  1  0  0  0
  3 16  1  0  0  0
  3 17  1  0  0  0
  4  5  1  0  0  0
  4 18  1  0  0  0
  4 19  1  0  0  0
  5  6  1  0  0  0
  5 20  1  0  0  0
  5 21  1  0  0  0
  6  7  1  0  0  0
  6  9  1  0  0  0
  6 22  1  0  0  0
  7  8  1  0  0  0
  7 23  1  0  0  0
  7 24  1  0  0  0
  8 25  1  0  0  0
  8 26  1  0  0  0
  8 27  1  0  0  0
  9 10  1  0  0  0
  9 28  1  0  0  0
  9 29  1  0  0  0
 10 30  1  0  0  0
 10 31  1  0  0  0
 10 32  1  0  0  0
M  END
>  <i_m_Spin_multiplicity> (1)
1

>  <s_j_Task> (1)
Single Point

>  <s_j_QM_Method> (1)
DFT(b3lyp-d3)

>  <s_j_QM_Basis> (1)
cc-pvtz(-f)

>  <i_j_Number_of_canonical_orbitals> (1)
425

>  <i_j_Geometry_convergence_category> (1)
1

>  <r_j_Gas_Phase_Energy> (1)
-394.497416576314

>  <r_j_Final_Energy> (1)
-394.497416576314

>  <r_j_HOMO> (1)
-0.293690617848446

>  <r_j_LUMO> (1)
0.0279245552851163

>  <r_j_Polarizability> (1)
124.060774401879

>  <r_j_QM_Dipole_(debye)> (1)
0.0830469011083645

>  <r_j_QM_Dipole_X_(debye)> (1)
0.0487490532708439

>  <r_j_QM_Dipole_Y_(debye)> (1)
0.0623973073930615

>  <r_j_QM_Dipole_Z_(debye)> (1)
-0.0250378437369254

>  <r_j_Lowest_Frequency_(cm-1)> (1)
73.1558528095447

>  <r_j_Highest_Frequency_(cm-1)> (1)
3058.01215662364

>  <r_j_2nd_Lowest_Frequency_(cm-1)> (1)
88.0051224218297

>  <i_j_Num_Negative_Frequencies> (1)
0

>  <r_j_Zero_Point_Energy_(kcal/mol)> (1)
189.676533364181

>  <r_j_Entropy_(cal/mol/K)_298.15K_1.00E+00atm> (1)
109.1078237348

>  <r_j_Enthalpy_(kcal/mol)_298.15K_1.00E+00atm> (1)
8.61259432220861

>  <r_j_Free_Energy_(kcal/mol)_298.15K_1.00E+00atm> (1)
-23.917903324322

>  <r_j_Internal_Energy_(kcal/mol)_298.15K_1.00E+00atm> (1)
8.02010873338134

>  <r_j_Heat_Capacity_(cal/mol/K)_298.15K_1.00E+00atm> (1)
48.3110158146079

>  <r_j_ln(Q)_298.15K_1.00E+00atm> (1)
40.3687511989338

>  <r_j_Total_Internal_Energy_(au)_298.15K_1.00E+00atm> (1)
-394.182366921211

>  <r_j_Total_Enthalpy_(au)_298.15K_1.00E+00atm> (1)
-394.181422735318

>  <r_j_Total_Free_Energy_(au)_298.15K_1.00E+00atm> (1)
-394.233263383471

>  <r_lp_tautomer_probability> (1)
1

>  <r_epik_Ionization_Penalty> (1)
  0.0000

>  <r_epik_Ionization_Penalty_Charging> (1)
  0.0000

>  <r_epik_Ionization_Penalty_Neutral> (1)
  0.0000

>  <r_epik_State_Penalty> (1)
  0.0000

>  <r_epik_Charging_Adjusted_Penalty> (1)
0

>  <i_epik_Tot_Q> (1)
0

>  <i_epik_Tot_abs_Q> (1)
0

>  <s_lp_Force_Field> (1)
S-OPLS

>  <r_lp_Energy> (1)
6.462734

>  <b_lp_Chiralities_Consistent> (1)
1

$$$$
