8003_N-pentane
                    3D
 Schrodinger Suite 2021-3.
 17 16  0  0  1  0            999 V2000
   -0.5903    1.4732    0.0000 C   0  0  0  0  0  0
   -0.0393    0.0441    0.0000 C   0  0  0  0  0  0
    1.4933   -0.0095    0.0000 C   0  0  0  0  0  0
    2.0547   -1.4366    0.0000 C   0  0  0  0  0  0
    3.5857   -1.4797    0.0000 C   0  0  0  0  0  0
   -1.6854    1.4832    0.0000 H   0  0  0  0  0  0
   -0.2511    2.0256   -0.8840 H   0  0  0  0  0  0
   -0.2511    2.0256    0.8840 H   0  0  0  0  0  0
   -0.4197   -0.4964    0.8777 H   0  0  0  0  0  0
   -0.4196   -0.4963   -0.8778 H   0  0  0  0  0  0
    1.8757    0.5313   -0.8780 H   0  0  0  0  0  0
    1.8757    0.5313    0.8780 H   0  0  0  0  0  0
    1.6719   -1.9753    0.8778 H   0  0  0  0  0  0
    1.6719   -1.9753   -0.8778 H   0  0  0  0  0  0
    3.9602   -2.5088    0.0000 H   0  0  0  0  0  0
    3.9934   -0.9757    0.8840 H   0  0  0  0  0  0
    3.9934   -0.9757   -0.8840 H   0  0  0  0  0  0
  1  2  1  0  0  0
  1  6  1  0  0  0
  1  7  1  0  0  0
  1  8  1  0  0  0
  2  3  1  0  0  0
  2  9  1  0  0  0
  2 10  1  0  0  0
  3  4  1  0  0  0
  3 11  1  0  0  0
  3 12  1  0  0  0
  4  5  1  0  0  0
  4 13  1  0  0  0
  4 14  1  0  0  0
  5 15  1  0  0  0
  5 16  1  0  0  0
  5 17  1  0  0  0
M  END
>  <i_m_Spin_multiplicity> (1)
1

>  <s_j_Task> (1)
Single Point

>  <s_j_QM_Method> (1)
DFT(b3lyp-d3)

>  <s_j_QM_Basis> (1)
cc-pvtz(-f)

>  <i_j_Number_of_canonical_orbitals> (1)
223

>  <i_j_Geometry_convergence_category> (1)
0

>  <r_j_Gas_Phase_Energy> (1)
-197.852844266223

>  <r_j_Final_Energy> (1)
-197.852844266223

>  <r_j_HOMO> (1)
-0.31956749402297

>  <r_j_LUMO> (1)
0.0310252761089382

>  <r_j_Polarizability> (1)
63.8651333656979

>  <r_j_QM_Dipole_(debye)> (1)
0.0836055284139729

>  <r_j_QM_Dipole_X_(debye)> (1)
-0.0482581364748686

>  <r_j_QM_Dipole_Y_(debye)> (1)
-0.0682717815315527

>  <r_j_QM_Dipole_Z_(debye)> (1)
-2.2177928830366e-05

>  <r_j_Lowest_Frequency_(cm-1)> (1)
143.27118764329

>  <r_j_Highest_Frequency_(cm-1)> (1)
3045.23775866174

>  <r_j_2nd_Lowest_Frequency_(cm-1)> (1)
166.113215050349

>  <i_j_Num_Negative_Frequencies> (1)
0

>  <r_j_Zero_Point_Energy_(kcal/mol)> (1)
100.44696650115

>  <r_j_Entropy_(cal/mol/K)_298.15K_1.00E+00atm> (1)
76.9393981531744

>  <r_j_Enthalpy_(kcal/mol)_298.15K_1.00E+00atm> (1)
4.78233203541496

>  <r_j_Free_Energy_(kcal/mol)_298.15K_1.00E+00atm> (1)
-18.157149523954

>  <r_j_Internal_Energy_(kcal/mol)_298.15K_1.00E+00atm> (1)
4.18984644658769

>  <r_j_Heat_Capacity_(cal/mol/K)_298.15K_1.00E+00atm> (1)
23.9010353951754

>  <r_j_ln(Q)_298.15K_1.00E+00atm> (1)
30.6457234848412

>  <r_j_Total_Internal_Energy_(au)_298.15K_1.00E+00atm> (1)
-197.6860948896

>  <r_j_Total_Enthalpy_(au)_298.15K_1.00E+00atm> (1)
-197.685150703707

>  <r_j_Total_Free_Energy_(au)_298.15K_1.00E+00atm> (1)
-197.721707094736

>  <r_lp_tautomer_probability> (1)
1

>  <r_epik_Ionization_Penalty> (1)
  0.0000

>  <r_epik_Ionization_Penalty_Charging> (1)
  0.0000

>  <r_epik_Ionization_Penalty_Neutral> (1)
  0.0000

>  <r_epik_State_Penalty> (1)
  0.0000

>  <r_epik_Charging_Adjusted_Penalty> (1)
0

>  <i_epik_Tot_Q> (1)
0

>  <i_epik_Tot_abs_Q> (1)
0

>  <s_lp_Force_Field> (1)
S-OPLS

>  <r_lp_Energy> (1)
1.417793

>  <b_lp_Chiralities_Consistent> (1)
1

$$$$
