8020_Dimethoxymethane
                    3D
 Schrodinger Suite 2021-3.
 13 12  0  0  1  0            999 V2000
   -0.5913    1.2528    0.0001 C   0  0  0  0  0  0
   -0.0096   -0.0356   -0.0001 O   0  0  0  0  0  0
    1.3862    0.0088   -0.0001 C   0  0  0  0  0  0
    1.8096   -1.3220    0.0000 O   0  0  0  0  0  0
    3.2182   -1.4411    0.0001 C   0  0  0  0  0  0
   -1.6743    1.1138    0.0000 H   0  0  0  0  0  0
   -0.3088    1.8341   -0.8925 H   0  0  0  0  0  0
   -0.3089    1.8339    0.8928 H   0  0  0  0  0  0
    1.7653    0.5449   -0.8979 H   0  0  0  0  0  0
    1.7653    0.5450    0.8978 H   0  0  0  0  0  0
    3.4481   -2.5085    0.0001 H   0  0  0  0  0  0
    3.6720   -0.9810    0.8927 H   0  0  0  0  0  0
    3.6720   -0.9811   -0.8926 H   0  0  0  0  0  0
  1  2  1  0  0  0
  1  6  1  0  0  0
  1  7  1  0  0  0
  1  8  1  0  0  0
  2  3  1  0  0  0
  3  4  1  0  0  0
  3  9  1  0  0  0
  3 10  1  0  0  0
  4  5  1  0  0  0
  5 11  1  0  0  0
  5 12  1  0  0  0
  5 13  1  0  0  0
M  END
>  <i_m_Spin_multiplicity> (1)
1

>  <s_j_Task> (1)
Single Point

>  <s_j_QM_Method> (1)
DFT(b3lyp-d3)

>  <s_j_QM_Basis> (1)
cc-pvtz(-f)

>  <i_j_Number_of_canonical_orbitals> (1)
187

>  <i_j_Geometry_convergence_category> (1)
0

>  <r_j_Gas_Phase_Energy> (1)
-269.651541012103

>  <r_j_Final_Energy> (1)
-269.651541012103

>  <r_j_HOMO> (1)
-0.259092208774478

>  <r_j_LUMO> (1)
0.0305746796262928

>  <r_j_Polarizability> (1)
48.462642395012

>  <r_j_QM_Dipole_(debye)> (1)
2.290904035762

>  <r_j_QM_Dipole_X_(debye)> (1)
1.32265561119707

>  <r_j_QM_Dipole_Y_(debye)> (1)
1.87051421349341

>  <r_j_QM_Dipole_Z_(debye)> (1)
0.000111169317486632

>  <r_j_Lowest_Frequency_(cm-1)> (1)
108.733045637854

>  <r_j_Highest_Frequency_(cm-1)> (1)
3075.08044637966

>  <r_j_2nd_Lowest_Frequency_(cm-1)> (1)
119.902269718403

>  <i_j_Num_Negative_Frequencies> (1)
0

>  <r_j_Zero_Point_Energy_(kcal/mol)> (1)
70.3445604162834

>  <r_j_Entropy_(cal/mol/K)_298.15K_1.00E+00atm> (1)
76.3536399418116

>  <r_j_Enthalpy_(kcal/mol)_298.15K_1.00E+00atm> (1)
4.61210059820841

>  <r_j_Free_Energy_(kcal/mol)_298.15K_1.00E+00atm> (1)
-18.1527371504427

>  <r_j_Internal_Energy_(kcal/mol)_298.15K_1.00E+00atm> (1)
4.01961500938113

>  <r_j_Heat_Capacity_(cal/mol/K)_298.15K_1.00E+00atm> (1)
20.6878792874131

>  <r_j_ln(Q)_298.15K_1.00E+00atm> (1)
30.6382762598041

>  <r_j_Total_Internal_Energy_(au)_298.15K_1.00E+00atm> (1)
-269.533034154468

>  <r_j_Total_Enthalpy_(au)_298.15K_1.00E+00atm> (1)
-269.532089968576

>  <r_j_Total_Free_Energy_(au)_298.15K_1.00E+00atm> (1)
-269.568368046975

>  <r_lp_tautomer_probability> (1)
1

>  <r_epik_Ionization_Penalty> (1)
  0.0000

>  <r_epik_Ionization_Penalty_Charging> (1)
  0.0000

>  <r_epik_Ionization_Penalty_Neutral> (1)
  0.0000

>  <r_epik_State_Penalty> (1)
  0.0000

>  <r_epik_Charging_Adjusted_Penalty> (1)
0

>  <i_epik_Tot_Q> (1)
0

>  <i_epik_Tot_abs_Q> (1)
0

>  <s_lp_Force_Field> (1)
S-OPLS

>  <r_lp_Energy> (1)
5.15232

>  <b_lp_Chiralities_Consistent> (1)
1

>  <s_epik_Chemistry_Notes> (1)
This compound contains an acetal/aminal-like group ( X-CH(R)-Y where X, Y are N, S, or O) that may be acid/base labile, releasing an aldehyde.

$$$$
