8025_Ethyl formate
                    3D
 Schrodinger Suite 2021-3.
 11 10  0  0  1  0            999 V2000
    0.0013   -0.0227    0.0000 C   0  0  0  0  0  0
    1.5115    0.1058   -0.0002 C   0  0  0  0  0  0
    2.0573   -1.2397   -0.0004 O   0  0  0  0  0  0
    3.3962   -1.3233    0.0001 C   0  0  0  0  0  0
    4.1641   -0.3915    0.0005 O   0  0  0  0  0  0
   -0.4569    0.9710    0.0001 H   0  0  0  0  0  0
   -0.3419   -0.5626    0.8870 H   0  0  0  0  0  0
   -0.3423   -0.5626   -0.8869 H   0  0  0  0  0  0
    1.8836    0.6356   -0.8831 H   0  0  0  0  0  0
    1.8839    0.6355    0.8826 H   0  0  0  0  0  0
    3.6904   -2.3850   -0.0001 H   0  0  0  0  0  0
  1  2  1  0  0  0
  1  6  1  0  0  0
  1  7  1  0  0  0
  1  8  1  0  0  0
  2  3  1  0  0  0
  2  9  1  0  0  0
  2 10  1  0  0  0
  3  4  1  0  0  0
  4  5  2  0  0  0
  4 11  1  0  0  0
M  END
>  <i_m_Spin_multiplicity> (1)
1

>  <s_j_Task> (1)
Single Point

>  <s_j_QM_Method> (1)
DFT(b3lyp-d3)

>  <s_j_QM_Basis> (1)
cc-pvtz(-f)

>  <i_j_Number_of_canonical_orbitals> (1)
169

>  <i_j_Geometry_convergence_category> (1)
0

>  <r_j_Gas_Phase_Energy> (1)
-268.487360888607

>  <r_j_Final_Energy> (1)
-268.487360888607

>  <r_j_HOMO> (1)
-0.294944556179552

>  <r_j_LUMO> (1)
-0.0124378450214027

>  <r_j_Polarizability> (1)
43.5472834811516

>  <r_j_QM_Dipole_(debye)> (1)
2.12588344203443

>  <r_j_QM_Dipole_X_(debye)> (1)
-2.10100632198237

>  <r_j_QM_Dipole_Y_(debye)> (1)
-0.32427241478489

>  <r_j_QM_Dipole_Z_(debye)> (1)
-0.000495091763215439

>  <r_j_Lowest_Frequency_(cm-1)> (1)
107.593540029071

>  <r_j_Highest_Frequency_(cm-1)> (1)
3076.52634582004

>  <r_j_2nd_Lowest_Frequency_(cm-1)> (1)
244.227634441194

>  <i_j_Num_Negative_Frequencies> (1)
0

>  <r_j_Zero_Point_Energy_(kcal/mol)> (1)
56.4918482644712

>  <r_j_Entropy_(cal/mol/K)_298.15K_1.00E+00atm> (1)
73.7121211843281

>  <r_j_Enthalpy_(kcal/mol)_298.15K_1.00E+00atm> (1)
4.05219932591081

>  <r_j_Free_Energy_(kcal/mol)_298.15K_1.00E+00atm> (1)
-17.9250696051966

>  <r_j_Internal_Energy_(kcal/mol)_298.15K_1.00E+00atm> (1)
3.45971373708353

>  <r_j_Heat_Capacity_(cal/mol/K)_298.15K_1.00E+00atm> (1)
18.2482713343156

>  <r_j_ln(Q)_298.15K_1.00E+00atm> (1)
30.2540178921082

>  <r_j_Total_Internal_Energy_(au)_298.15K_1.00E+00atm> (1)
-268.391821992594

>  <r_j_Total_Enthalpy_(au)_298.15K_1.00E+00atm> (1)
-268.390877806701

>  <r_j_Total_Free_Energy_(au)_298.15K_1.00E+00atm> (1)
-268.425900814292

>  <r_lp_tautomer_probability> (1)
1

>  <r_epik_Ionization_Penalty> (1)
  0.0000

>  <r_epik_Ionization_Penalty_Charging> (1)
  0.0000

>  <r_epik_Ionization_Penalty_Neutral> (1)
  0.0000

>  <r_epik_State_Penalty> (1)
  0.0000

>  <r_epik_Charging_Adjusted_Penalty> (1)
0

>  <i_epik_Tot_Q> (1)
0

>  <i_epik_Tot_abs_Q> (1)
0

>  <s_lp_Force_Field> (1)
S-OPLS

>  <r_lp_Energy> (1)
0.79519

>  <b_lp_Chiralities_Consistent> (1)
1

>  <s_epik_Chemistry_Notes> (1)
This compound has an ester and may undergo hydrolysis at high or low pH.

$$$$
