8027_Pyrrole
                    3D
 Schrodinger Suite 2021-3.
 10 10  0  0  1  0            999 V2000
    2.6591    2.0738    3.2704 C   0  0  0  0  0  0
    2.6942    1.1823    4.3198 C   0  0  0  0  0  0
    3.4242    0.0896    3.9151 N   0  0  0  0  0  0
    3.8558    0.2707    2.6223 C   0  0  0  0  0  0
    3.3948    1.4965    2.1953 C   0  0  0  0  0  0
    2.1613    3.0331    3.2734 H   0  0  0  0  0  0
    2.2662    1.2321    5.3097 H   0  0  0  0  0  0
    3.6142   -0.7212    4.4805 H   0  0  0  0  0  0
    4.4480   -0.4802    2.1212 H   0  0  0  0  0  0
    3.5661    1.9308    1.2205 H   0  0  0  0  0  0
  1  5  1  0  0  0
  1  2  2  0  0  0
  1  6  1  0  0  0
  2  3  1  0  0  0
  2  7  1  0  0  0
  3  4  1  0  0  0
  3  8  1  0  0  0
  4  5  2  0  0  0
  4  9  1  0  0  0
  5 10  1  0  0  0
M  END
>  <i_m_Spin_multiplicity> (1)
1

>  <s_j_Task> (1)
Single Point

>  <s_j_QM_Method> (1)
DFT(b3lyp-d3)

>  <s_j_QM_Basis> (1)
cc-pvtz(-f)

>  <i_j_Number_of_canonical_orbitals> (1)
159

>  <i_j_Geometry_convergence_category> (1)
3

>  <r_j_Gas_Phase_Energy> (1)
-210.243777621792

>  <r_j_Final_Energy> (1)
-210.243777621792

>  <r_j_HOMO> (1)
-0.226848693108987

>  <r_j_LUMO> (1)
0.00461228258053522

>  <r_j_Polarizability> (1)
48.2422054474852

>  <r_j_QM_Dipole_(debye)> (1)
1.89560737463468

>  <r_j_QM_Dipole_X_(debye)> (1)
0.357700411314147

>  <r_j_QM_Dipole_Y_(debye)> (1)
-1.52695420136346

>  <r_j_QM_Dipole_Z_(debye)> (1)
1.06479509834219

>  <r_j_Lowest_Frequency_(cm-1)> (1)
485.860743720485

>  <r_j_Highest_Frequency_(cm-1)> (1)
3630.88127154431

>  <r_j_2nd_Lowest_Frequency_(cm-1)> (1)
633.434626538435

>  <i_j_Num_Negative_Frequencies> (1)
0

>  <r_j_Zero_Point_Energy_(kcal/mol)> (1)
51.4300039200947

>  <r_j_Entropy_(cal/mol/K)_298.15K_1.00E+00atm> (1)
65.7921290098528

>  <r_j_Enthalpy_(kcal/mol)_298.15K_1.00E+00atm> (1)
3.06199802149105

>  <r_j_Free_Energy_(kcal/mol)_298.15K_1.00E+00atm> (1)
-16.5539252427966

>  <r_j_Internal_Energy_(kcal/mol)_298.15K_1.00E+00atm> (1)
2.46951243266378

>  <r_j_Heat_Capacity_(cal/mol/K)_298.15K_1.00E+00atm> (1)
14.6416989296055

>  <r_j_ln(Q)_298.15K_1.00E+00atm> (1)
27.9397939037847

>  <r_j_Total_Internal_Energy_(au)_298.15K_1.00E+00atm> (1)
-210.157883274488

>  <r_j_Total_Enthalpy_(au)_298.15K_1.00E+00atm> (1)
-210.156939088596

>  <r_j_Total_Free_Energy_(au)_298.15K_1.00E+00atm> (1)
-210.188199052313

>  <r_lp_tautomer_probability> (1)
1

>  <r_epik_Ionization_Penalty> (1)
  0.0000

>  <r_epik_Ionization_Penalty_Charging> (1)
  0.0000

>  <r_epik_Ionization_Penalty_Neutral> (1)
  0.0000

>  <r_epik_State_Penalty> (1)
  0.0000

>  <r_epik_Charging_Adjusted_Penalty> (1)
0

>  <i_epik_Tot_Q> (1)
0

>  <i_epik_Tot_abs_Q> (1)
0

>  <s_lp_Force_Field> (1)
S-OPLS

>  <r_lp_Energy> (1)
2.91321

>  <b_lp_Chiralities_Consistent> (1)
1

$$$$
