80281_1-Nonadecanol
                    3D
 Schrodinger Suite 2021-3.
 60 59  0  0  1  0            999 V2000
   -5.0645    8.8654    2.9810 C   0  0  0  0  0  0
   -4.4879    7.4549    2.8288 C   0  0  0  0  0  0
   -4.8028    6.8178    1.4699 C   0  0  0  0  0  0
   -4.2255    5.4062    1.3164 C   0  0  0  0  0  0
   -4.5295    4.7662   -0.0449 C   0  0  0  0  0  0
   -4.0341    3.3180   -0.1859 C   0  0  0  0  0  0
   -2.5079    3.1639   -0.1506 C   0  0  0  0  0  0
   -2.0404    1.7111   -0.2962 C   0  0  0  0  0  0
   -0.5154    1.5601   -0.2520 C   0  0  0  0  0  0
   -0.0402    0.1042   -0.3152 C   0  0  0  0  0  0
    1.4855   -0.0389   -0.2683 C   0  0  0  0  0  0
    1.9625   -1.4958   -0.2569 C   0  0  0  0  0  0
    3.4906   -1.6292   -0.2137 C   0  0  0  0  0  0
    4.0030   -3.0780   -0.2218 C   0  0  0  0  0  0
    3.6407   -3.8776    1.0392 C   0  0  0  0  0  0
    4.2871   -5.2693    1.1122 C   0  0  0  0  0  0
    3.8146   -6.2438    0.0250 C   0  0  0  0  0  0
    4.4109   -7.6462    0.1857 C   0  0  0  0  0  0
    3.9479   -8.6151   -0.8935 C   0  0  0  0  0  0
    4.5593   -9.8770   -0.6422 O   0  0  0  0  0  0
   -4.8247    9.2954    3.9591 H   0  0  0  0  0  0
   -6.1558    8.8584    2.8781 H   0  0  0  0  0  0
   -4.6659    9.5390    2.2136 H   0  0  0  0  0  0
   -3.3986    7.4857    2.9687 H   0  0  0  0  0  0
   -4.8773    6.8098    3.6283 H   0  0  0  0  0  0
   -5.8925    6.7857    1.3269 H   0  0  0  0  0  0
   -4.4120    7.4610    0.6682 H   0  0  0  0  0  0
   -3.1402    5.4488    1.4757 H   0  0  0  0  0  0
   -4.6238    4.7622    2.1141 H   0  0  0  0  0  0
   -5.6151    4.7887   -0.2109 H   0  0  0  0  0  0
   -4.0883    5.3816   -0.8421 H   0  0  0  0  0  0
   -4.4773    2.7064    0.6134 H   0  0  0  0  0  0
   -4.4101    2.9007   -1.1298 H   0  0  0  0  0  0
   -2.0641    3.7742   -0.9506 H   0  0  0  0  0  0
   -2.1136    3.5665    0.7913 H   0  0  0  0  0  0
   -2.4879    1.1066    0.5059 H   0  0  0  0  0  0
   -2.4227    1.2932   -1.2385 H   0  0  0  0  0  0
   -0.0689    2.1275   -1.0811 H   0  0  0  0  0  0
   -0.1333    2.0226    0.6696 H   0  0  0  0  0  0
   -0.4829   -0.4559    0.5211 H   0  0  0  0  0  0
   -0.4234   -0.3679   -1.2312 H   0  0  0  0  0  0
    1.9274    0.4852   -1.1279 H   0  0  0  0  0  0
    1.8695    0.4723    0.6263 H   0  0  0  0  0  0
    1.5173   -2.0070    0.6066 H   0  0  0  0  0  0
    1.5792   -2.0146   -1.1476 H   0  0  0  0  0  0
    3.9152   -1.0950   -1.0745 H   0  0  0  0  0  0
    3.8731   -1.1154    0.6802 H   0  0  0  0  0  0
    3.6150   -3.5882   -1.1134 H   0  0  0  0  0  0
    5.0966   -3.0691   -0.3282 H   0  0  0  0  0  0
    3.9461   -3.2976    1.9210 H   0  0  0  0  0  0
    2.5507   -3.9884    1.1114 H   0  0  0  0  0  0
    5.3803   -5.1673    1.0553 H   0  0  0  0  0  0
    4.0744   -5.7095    2.0955 H   0  0  0  0  0  0
    2.7167   -6.3048    0.0498 H   0  0  0  0  0  0
    4.0754   -5.8509   -0.9663 H   0  0  0  0  0  0
    5.5067   -7.5969    0.1592 H   0  0  0  0  0  0
    4.1410   -8.0634    1.1639 H   0  0  0  0  0  0
    2.8472   -8.6909   -0.8748 H   0  0  0  0  0  0
    4.2273   -8.2237   -1.8867 H   0  0  0  0  0  0
    4.2645  -10.4938   -1.3236 H   0  0  0  0  0  0
  1  2  1  0  0  0
  1 21  1  0  0  0
  1 22  1  0  0  0
  1 23  1  0  0  0
  2  3  1  0  0  0
  2 24  1  0  0  0
  2 25  1  0  0  0
  3  4  1  0  0  0
  3 26  1  0  0  0
  3 27  1  0  0  0
  4  5  1  0  0  0
  4 28  1  0  0  0
  4 29  1  0  0  0
  5  6  1  0  0  0
  5 30  1  0  0  0
  5 31  1  0  0  0
  6  7  1  0  0  0
  6 32  1  0  0  0
  6 33  1  0  0  0
  7  8  1  0  0  0
  7 34  1  0  0  0
  7 35  1  0  0  0
  8  9  1  0  0  0
  8 36  1  0  0  0
  8 37  1  0  0  0
  9 10  1  0  0  0
  9 38  1  0  0  0
  9 39  1  0  0  0
 10 11  1  0  0  0
 10 40  1  0  0  0
 10 41  1  0  0  0
 11 12  1  0  0  0
 11 42  1  0  0  0
 11 43  1  0  0  0
 12 13  1  0  0  0
 12 44  1  0  0  0
 12 45  1  0  0  0
 13 14  1  0  0  0
 13 46  1  0  0  0
 13 47  1  0  0  0
 14 15  1  0  0  0
 14 48  1  0  0  0
 14 49  1  0  0  0
 15 16  1  0  0  0
 15 50  1  0  0  0
 15 51  1  0  0  0
 16 17  1  0  0  0
 16 52  1  0  0  0
 16 53  1  0  0  0
 17 18  1  0  0  0
 17 54  1  0  0  0
 17 55  1  0  0  0
 18 19  1  0  0  0
 18 56  1  0  0  0
 18 57  1  0  0  0
 19 20  1  0  0  0
 19 58  1  0  0  0
 19 59  1  0  0  0
 20 60  1  0  0  0
M  END
>  <i_m_Spin_multiplicity> (1)
1

>  <s_j_Task> (1)
Single Point

>  <s_j_QM_Method> (1)
DFT(b3lyp-d3)

>  <s_j_QM_Basis> (1)
cc-pvtz(-f)

>  <i_j_Number_of_canonical_orbitals> (1)
815

>  <i_j_Geometry_convergence_category> (1)
0

>  <r_j_Gas_Phase_Energy> (1)
-823.703289746675

>  <r_j_Final_Energy> (1)
-823.703289746675

>  <r_j_HOMO> (1)
-0.280788779975663

>  <r_j_LUMO> (1)
-0.0133979758154456

>  <r_j_Polarizability> (1)
241.137568557858

>  <r_j_QM_Dipole_(debye)> (1)
1.42451420010745

>  <r_j_QM_Dipole_X_(debye)> (1)
-0.886382380624464

>  <r_j_QM_Dipole_Y_(debye)> (1)
0.308273521257347

>  <r_j_QM_Dipole_Z_(debye)> (1)
-1.07169698036239

>  <r_j_Lowest_Frequency_(cm-1)> (1)
21.9718700998622

>  <r_j_Highest_Frequency_(cm-1)> (1)
3773.91430167269

>  <r_j_2nd_Lowest_Frequency_(cm-1)> (1)
30.3844056905095

>  <i_j_Num_Negative_Frequencies> (1)
0

>  <r_j_Zero_Point_Energy_(kcal/mol)> (1)
354.175682833584

>  <r_j_Entropy_(cal/mol/K)_298.15K_1.00E+00atm> (1)
164.015102490653

>  <r_j_Enthalpy_(kcal/mol)_298.15K_1.00E+00atm> (1)
16.017195442579

>  <r_j_Free_Energy_(kcal/mol)_298.15K_1.00E+00atm> (1)
-32.8839073650093

>  <r_j_Internal_Energy_(kcal/mol)_298.15K_1.00E+00atm> (1)
15.4247098537517

>  <r_j_Heat_Capacity_(cal/mol/K)_298.15K_1.00E+00atm> (1)
93.6898256136758

>  <r_j_ln(Q)_298.15K_1.00E+00atm> (1)
55.5016155415653

>  <r_j_Total_Internal_Energy_(au)_298.15K_1.00E+00atm> (1)
-823.114294025723

>  <r_j_Total_Enthalpy_(au)_298.15K_1.00E+00atm> (1)
-823.11334983983

>  <r_j_Total_Free_Energy_(au)_298.15K_1.00E+00atm> (1)
-823.191278708071

>  <r_lp_tautomer_probability> (1)
1

>  <r_epik_Ionization_Penalty> (1)
  0.0000

>  <r_epik_Ionization_Penalty_Charging> (1)
  0.0000

>  <r_epik_Ionization_Penalty_Neutral> (1)
  0.0000

>  <r_epik_State_Penalty> (1)
  0.0000

>  <r_epik_Charging_Adjusted_Penalty> (1)
0

>  <i_epik_Tot_Q> (1)
0

>  <i_epik_Tot_abs_Q> (1)
0

>  <s_lp_Force_Field> (1)
S-OPLS

>  <r_lp_Energy> (1)
10.988

>  <b_lp_Chiralities_Consistent> (1)
1

$$$$
