8029_Furan
                    3D
 Schrodinger Suite 2021-3.
  9  9  0  0  1  0            999 V2000
   -2.4975  -13.0889   -0.8395 C   0  0  0  0  0  0
   -1.4057  -12.7151   -1.5605 C   0  0  0  0  0  0
   -1.1528  -13.6197   -2.5500 O   0  0  0  0  0  0
   -2.1088  -14.5882   -2.4508 C   0  0  0  0  0  0
   -2.9584  -14.3168   -1.4232 C   0  0  0  0  0  0
   -2.9236  -12.5609    0.0011 H   0  0  0  0  0  0
   -0.7288  -11.8769   -1.5043 H   0  0  0  0  0  0
   -2.0465  -15.3874   -3.1728 H   0  0  0  0  0  0
   -3.8061  -14.9121   -1.1164 H   0  0  0  0  0  0
  1  5  1  0  0  0
  1  2  2  0  0  0
  1  6  1  0  0  0
  2  3  1  0  0  0
  2  7  1  0  0  0
  3  4  1  0  0  0
  4  5  2  0  0  0
  4  8  1  0  0  0
  5  9  1  0  0  0
M  END
>  <i_m_Spin_multiplicity> (1)
1

>  <s_j_Task> (1)
Single Point

>  <s_j_QM_Method> (1)
DFT(b3lyp-d3)

>  <s_j_QM_Basis> (1)
cc-pvtz(-f)

>  <i_j_Number_of_canonical_orbitals> (1)
150

>  <i_j_Geometry_convergence_category> (1)
0

>  <r_j_Gas_Phase_Energy> (1)
-230.103573666298

>  <r_j_Final_Energy> (1)
-230.103573666298

>  <r_j_HOMO> (1)
-0.30326267201564

>  <r_j_LUMO> (1)
-0.0658222375472933

>  <r_j_Polarizability> (1)
43.4939272279242

>  <r_j_QM_Dipole_(debye)> (1)
0.619872135461472

>  <r_j_QM_Dipole_X_(debye)> (1)
-0.460222388353596

>  <r_j_QM_Dipole_Y_(debye)> (1)
-0.0244103642500049

>  <r_j_QM_Dipole_Z_(debye)> (1)
0.414537032961905

>  <r_j_Lowest_Frequency_(cm-1)> (1)
622.33993048405

>  <r_j_Highest_Frequency_(cm-1)> (1)
3238.25598212812

>  <r_j_2nd_Lowest_Frequency_(cm-1)> (1)
626.434746402013

>  <i_j_Num_Negative_Frequencies> (1)
0

>  <r_j_Zero_Point_Energy_(kcal/mol)> (1)
43.5852262273551

>  <r_j_Entropy_(cal/mol/K)_298.15K_1.00E+00atm> (1)
65.018585144249

>  <r_j_Enthalpy_(kcal/mol)_298.15K_1.00E+00atm> (1)
2.90634650733658

>  <r_j_Free_Energy_(kcal/mol)_298.15K_1.00E+00atm> (1)
-16.4789446534212

>  <r_j_Internal_Energy_(kcal/mol)_298.15K_1.00E+00atm> (1)
2.31386091850931

>  <r_j_Heat_Capacity_(cal/mol/K)_298.15K_1.00E+00atm> (1)
13.2222009438911

>  <r_j_ln(Q)_298.15K_1.00E+00atm> (1)
27.8132413077566

>  <r_j_Total_Internal_Energy_(au)_298.15K_1.00E+00atm> (1)
-230.030428814562

>  <r_j_Total_Enthalpy_(au)_298.15K_1.00E+00atm> (1)
-230.02948462867

>  <r_j_Total_Free_Energy_(au)_298.15K_1.00E+00atm> (1)
-230.060377056733

>  <r_lp_tautomer_probability> (1)
1

>  <r_epik_Ionization_Penalty> (1)
  0.0000

>  <r_epik_Ionization_Penalty_Charging> (1)
  0.0000

>  <r_epik_Ionization_Penalty_Neutral> (1)
  0.0000

>  <r_epik_State_Penalty> (1)
  0.0000

>  <r_epik_Charging_Adjusted_Penalty> (1)
0

>  <i_epik_Tot_Q> (1)
0

>  <i_epik_Tot_abs_Q> (1)
0

>  <s_lp_Force_Field> (1)
S-OPLS

>  <r_lp_Energy> (1)
2.598084

>  <b_lp_Chiralities_Consistent> (1)
1

$$$$
