8064_1,4-Butanediol
                    3D
 Schrodinger Suite 2021-3.
 16 15  0  0  1  0            999 V2000
   -0.0151    0.0322    0.0000 C   0  0  0  0  0  0
    1.5151   -0.0322    0.0000 C   0  0  0  0  0  0
    2.0403   -1.4614   -0.0004 C   0  0  0  0  0  0
    3.4627   -1.4028    0.0004 O   0  0  0  0  0  0
   -0.5403    1.4614   -0.0004 C   0  0  0  0  0  0
   -1.9627    1.4028    0.0004 O   0  0  0  0  0  0
   -0.4200   -0.4838   -0.8796 H   0  0  0  0  0  0
   -0.4200   -0.4831    0.8801 H   0  0  0  0  0  0
    1.9200    0.4837   -0.8796 H   0  0  0  0  0  0
    1.9200    0.4831    0.8801 H   0  0  0  0  0  0
    1.6587   -1.9957    0.8863 H   0  0  0  0  0  0
    1.6597   -1.9948   -0.8881 H   0  0  0  0  0  0
    3.8001   -2.3072    0.0001 H   0  0  0  0  0  0
   -0.1587    1.9957    0.8863 H   0  0  0  0  0  0
   -0.1597    1.9948   -0.8881 H   0  0  0  0  0  0
   -2.3001    2.3073    0.0000 H   0  0  0  0  0  0
  1  2  1  0  0  0
  1  5  1  0  0  0
  1  7  1  0  0  0
  1  8  1  0  0  0
  2  3  1  0  0  0
  2  9  1  0  0  0
  2 10  1  0  0  0
  3  4  1  0  0  0
  3 11  1  0  0  0
  3 12  1  0  0  0
  4 13  1  0  0  0
  5  6  1  0  0  0
  5 14  1  0  0  0
  5 15  1  0  0  0
  6 16  1  0  0  0
M  END
>  <i_m_Spin_multiplicity> (1)
1

>  <s_j_Task> (1)
Single Point

>  <s_j_QM_Method> (1)
DFT(b3lyp-d3)

>  <s_j_QM_Basis> (1)
cc-pvtz(-f)

>  <i_j_Number_of_canonical_orbitals> (1)
228

>  <i_j_Geometry_convergence_category> (1)
0

>  <r_j_Gas_Phase_Energy> (1)
-309.005300342653

>  <r_j_Final_Energy> (1)
-309.005300342653

>  <r_j_HOMO> (1)
-0.268386950698216

>  <r_j_LUMO> (1)
0.0191485548568273

>  <r_j_Polarizability> (1)
58.9928370515995

>  <r_j_QM_Dipole_(debye)> (1)
0.00229704523390559

>  <r_j_QM_Dipole_X_(debye)> (1)
4.2038450515856e-05

>  <r_j_QM_Dipole_Y_(debye)> (1)
4.22203942051742e-05

>  <r_j_QM_Dipole_Z_(debye)> (1)
-0.00229627241711426

>  <r_j_Lowest_Frequency_(cm-1)> (1)
87.031518181398

>  <r_j_Highest_Frequency_(cm-1)> (1)
3773.82778216892

>  <r_j_2nd_Lowest_Frequency_(cm-1)> (1)
149.506219343421

>  <i_j_Num_Negative_Frequencies> (1)
0

>  <r_j_Zero_Point_Energy_(kcal/mol)> (1)
89.070010428152

>  <r_j_Entropy_(cal/mol/K)_298.15K_1.00E+00atm> (1)
82.5829187432902

>  <r_j_Enthalpy_(kcal/mol)_298.15K_1.00E+00atm> (1)
5.32588958724141

>  <r_j_Free_Energy_(kcal/mol)_298.15K_1.00E+00atm> (1)
-19.2962076360706

>  <r_j_Internal_Energy_(kcal/mol)_298.15K_1.00E+00atm> (1)
4.73340399841413

>  <r_j_Heat_Capacity_(cal/mol/K)_298.15K_1.00E+00atm> (1)
26.1686510046791

>  <r_j_ln(Q)_298.15K_1.00E+00atm> (1)
32.5682311940518

>  <r_j_Total_Internal_Energy_(au)_298.15K_1.00E+00atm> (1)
-308.855815085599

>  <r_j_Total_Enthalpy_(au)_298.15K_1.00E+00atm> (1)
-308.854870899707

>  <r_j_Total_Free_Energy_(au)_298.15K_1.00E+00atm> (1)
-308.894108709494

>  <r_lp_tautomer_probability> (1)
1

>  <r_epik_Ionization_Penalty> (1)
  0.0000

>  <r_epik_Ionization_Penalty_Charging> (1)
  0.0000

>  <r_epik_Ionization_Penalty_Neutral> (1)
  0.0000

>  <r_epik_State_Penalty> (1)
  0.0000

>  <r_epik_Charging_Adjusted_Penalty> (1)
0

>  <i_epik_Tot_Q> (1)
0

>  <i_epik_Tot_abs_Q> (1)
0

>  <s_lp_Force_Field> (1)
S-OPLS

>  <r_lp_Energy> (1)
3.11341

>  <b_lp_Chiralities_Consistent> (1)
1

$$$$
