8076_2-ethoxyethanol
                    3D
 Schrodinger Suite 2021-3.
 16 15  0  0  1  0            999 V2000
   -2.0896    1.1029    0.0000 C   0  0  0  0  0  0
   -0.5791    1.2652   -0.0002 C   0  0  0  0  0  0
    0.0048   -0.0275    0.0001 O   0  0  0  0  0  0
    1.4186   -0.0028    0.0002 C   0  0  0  0  0  0
    1.9020   -1.4439   -0.0001 C   0  0  0  0  0  0
    3.3237   -1.4025    0.0000 O   0  0  0  0  0  0
   -2.5819    2.0804   -0.0003 H   0  0  0  0  0  0
   -2.4123    0.5493    0.8865 H   0  0  0  0  0  0
   -2.4125    0.5487   -0.8860 H   0  0  0  0  0  0
   -0.2497    1.8335   -0.8872 H   0  0  0  0  0  0
   -0.2495    1.8340    0.8863 H   0  0  0  0  0  0
    1.8136    0.5170   -0.8881 H   0  0  0  0  0  0
    1.8134    0.5166    0.8888 H   0  0  0  0  0  0
    1.4991   -1.9543    0.8881 H   0  0  0  0  0  0
    1.4993   -1.9538   -0.8887 H   0  0  0  0  0  0
    3.6498   -2.3103   -0.0002 H   0  0  0  0  0  0
  1  2  1  0  0  0
  1  7  1  0  0  0
  1  8  1  0  0  0
  1  9  1  0  0  0
  2  3  1  0  0  0
  2 10  1  0  0  0
  2 11  1  0  0  0
  3  4  1  0  0  0
  4  5  1  0  0  0
  4 12  1  0  0  0
  4 13  1  0  0  0
  5  6  1  0  0  0
  5 14  1  0  0  0
  5 15  1  0  0  0
  6 16  1  0  0  0
M  END
>  <i_m_Spin_multiplicity> (1)
1

>  <s_j_Task> (1)
Single Point

>  <s_j_QM_Method> (1)
DFT(b3lyp-d3)

>  <s_j_QM_Basis> (1)
cc-pvtz(-f)

>  <i_j_Number_of_canonical_orbitals> (1)
228

>  <i_j_Geometry_convergence_category> (1)
0

>  <r_j_Gas_Phase_Energy> (1)
-308.997249829782

>  <r_j_Final_Energy> (1)
-308.997249829782

>  <r_j_HOMO> (1)
-0.259086790458932

>  <r_j_LUMO> (1)
0.0174999123373089

>  <r_j_Polarizability> (1)
60.130081203572

>  <r_j_QM_Dipole_(debye)> (1)
0.438018359275734

>  <r_j_QM_Dipole_X_(debye)> (1)
-0.251391565843429

>  <r_j_QM_Dipole_Y_(debye)> (1)
-0.358695017920404

>  <r_j_QM_Dipole_Z_(debye)> (1)
-0.000497799634994877

>  <r_j_Lowest_Frequency_(cm-1)> (1)
84.6368039145562

>  <r_j_Highest_Frequency_(cm-1)> (1)
3785.49273095935

>  <r_j_2nd_Lowest_Frequency_(cm-1)> (1)
146.796622463705

>  <i_j_Num_Negative_Frequencies> (1)
0

>  <r_j_Zero_Point_Energy_(kcal/mol)> (1)
88.5583704116922

>  <r_j_Entropy_(cal/mol/K)_298.15K_1.00E+00atm> (1)
84.0878830629956

>  <r_j_Enthalpy_(kcal/mol)_298.15K_1.00E+00atm> (1)
5.35776062392793

>  <r_j_Free_Energy_(kcal/mol)_298.15K_1.00E+00atm> (1)
-19.7130417113042

>  <r_j_Internal_Energy_(kcal/mol)_298.15K_1.00E+00atm> (1)
4.76527503510065

>  <r_j_Heat_Capacity_(cal/mol/K)_298.15K_1.00E+00atm> (1)
26.0088275871808

>  <r_j_ln(Q)_298.15K_1.00E+00atm> (1)
33.2717657324338

>  <r_j_Total_Internal_Energy_(au)_298.15K_1.00E+00atm> (1)
-308.848529133269

>  <r_j_Total_Enthalpy_(au)_298.15K_1.00E+00atm> (1)
-308.847584947377

>  <r_j_Total_Free_Energy_(au)_298.15K_1.00E+00atm> (1)
-308.88753781428

>  <r_lp_tautomer_probability> (1)
1

>  <r_epik_Ionization_Penalty> (1)
  0.0000

>  <r_epik_Ionization_Penalty_Charging> (1)
  0.0000

>  <r_epik_Ionization_Penalty_Neutral> (1)
  0.0000

>  <r_epik_State_Penalty> (1)
  0.0000

>  <r_epik_Charging_Adjusted_Penalty> (1)
0

>  <i_epik_Tot_Q> (1)
0

>  <i_epik_Tot_abs_Q> (1)
0

>  <s_lp_Force_Field> (1)
S-OPLS

>  <r_lp_Energy> (1)
3.208835

>  <b_lp_Chiralities_Consistent> (1)
1

$$$$
