8083_Morpholine
                    3D
 Schrodinger Suite 2021-3.
 15 15  0  0  1  0            999 V2000
    4.7124   -5.9847   -3.6534 C   0  0  0  0  0  0
    5.2670   -7.4081   -3.6234 C   0  0  0  0  0  0
    4.2527   -8.3441   -3.2697 O   0  0  0  0  0  0
    3.1610   -8.2887   -4.1837 C   0  0  0  0  0  0
    2.5542   -6.8871   -4.2277 C   0  0  0  0  0  0
    3.6051   -5.9409   -4.6125 N   0  0  0  0  0  0
    5.4964   -5.2879   -3.9712 H   0  0  0  0  0  0
    4.4048   -5.7104   -2.6268 H   0  0  0  0  0  0
    5.6861   -7.6551   -4.6126 H   0  0  0  0  0  0
    6.0555   -7.5052   -2.8712 H   0  0  0  0  0  0
    3.4954   -8.5709   -5.1955 H   0  0  0  0  0  0
    2.4272   -9.0222   -3.8366 H   0  0  0  0  0  0
    1.7472   -6.8554   -4.9688 H   0  0  0  0  0  0
    2.1177   -6.6668   -3.2354 H   0  0  0  0  0  0
    3.2255   -4.9997   -4.6647 H   0  0  0  0  0  0
  1  6  1  0  0  0
  1  2  1  0  0  0
  1  7  1  0  0  0
  1  8  1  0  0  0
  2  3  1  0  0  0
  2  9  1  0  0  0
  2 10  1  0  0  0
  3  4  1  0  0  0
  4  5  1  0  0  0
  4 11  1  0  0  0
  4 12  1  0  0  0
  5  6  1  0  0  0
  5 13  1  0  0  0
  5 14  1  0  0  0
  6 15  1  0  0  0
M  END
>  <i_m_Spin_multiplicity> (1)
1

>  <s_j_Task> (1)
Single Point

>  <s_j_QM_Method> (1)
DFT(b3lyp-d3)

>  <s_j_QM_Basis> (1)
cc-pvtz(-f)

>  <i_j_Number_of_canonical_orbitals> (1)
218

>  <i_j_Geometry_convergence_category> (1)
0

>  <r_j_Gas_Phase_Energy> (1)
-287.906208745764

>  <r_j_Final_Energy> (1)
-287.906208745764

>  <r_j_HOMO> (1)
-0.246317948990647

>  <r_j_LUMO> (1)
0.0197199839001957

>  <r_j_Polarizability> (1)
58.5198914679458

>  <r_j_QM_Dipole_(debye)> (1)
1.52154419455572

>  <r_j_QM_Dipole_X_(debye)> (1)
-0.522829306364204

>  <r_j_QM_Dipole_Y_(debye)> (1)
1.40742922457721

>  <r_j_QM_Dipole_Z_(debye)> (1)
-0.24675743190213

>  <r_j_Lowest_Frequency_(cm-1)> (1)
284.079032431582

>  <r_j_Highest_Frequency_(cm-1)> (1)
3468.28903059727

>  <r_j_2nd_Lowest_Frequency_(cm-1)> (1)
285.361507310906

>  <i_j_Num_Negative_Frequencies> (1)
0

>  <r_j_Zero_Point_Energy_(kcal/mol)> (1)
84.4048795393845

>  <r_j_Entropy_(cal/mol/K)_298.15K_1.00E+00atm> (1)
72.5373194272249

>  <r_j_Enthalpy_(kcal/mol)_298.15K_1.00E+00atm> (1)
3.84753178121374

>  <r_j_Free_Energy_(kcal/mol)_298.15K_1.00E+00atm> (1)
-17.7794700060133

>  <r_j_Internal_Energy_(kcal/mol)_298.15K_1.00E+00atm> (1)
3.25504619238647

>  <r_j_Heat_Capacity_(cal/mol/K)_298.15K_1.00E+00atm> (1)
20.1947904316229

>  <r_j_ln(Q)_298.15K_1.00E+00atm> (1)
30.0082741948286

>  <r_j_Total_Internal_Energy_(au)_298.15K_1.00E+00atm> (1)
-287.76651376119

>  <r_j_Total_Enthalpy_(au)_298.15K_1.00E+00atm> (1)
-287.765569575298

>  <r_j_Total_Free_Energy_(au)_298.15K_1.00E+00atm> (1)
-287.800034396661

>  <r_epik_Ionization_Penalty> (1)
  2.1597

>  <r_epik_Ionization_Penalty_Charging> (1)
  0.0000

>  <r_epik_Ionization_Penalty_Neutral> (1)
  2.1597

>  <r_epik_State_Penalty> (1)
  2.3002

>  <r_epik_Charging_Adjusted_Penalty> (1)
2.30021

>  <i_epik_Tot_Q> (1)
0

>  <i_epik_Tot_abs_Q> (1)
0

>  <s_lp_Force_Field> (1)
S-OPLS

>  <r_lp_Energy> (1)
6.32089

>  <b_lp_Chiralities_Consistent> (1)
1

$$$$
