8093_Octanone
                    3D
 Schrodinger Suite 2021-3.
 25 24  0  0  1  0            999 V2000
   -0.6661    3.6545   -1.3324 C   0  0  0  0  0  0
   -0.0753    2.2417   -1.3048 C   0  0  0  0  0  0
   -0.4583    1.4655   -0.0371 C   0  0  0  0  0  0
    0.0364    0.0116   -0.0056 C   0  0  0  0  0  0
    1.5636   -0.1306    0.0175 C   0  0  0  0  0  0
    2.0185   -1.6013    0.1215 C   0  0  0  0  0  0
    3.5386   -1.6853    0.0947 C   0  0  0  0  0  0
    4.1468   -1.7232   -0.9587 O   0  0  0  0  0  0
    4.2522   -1.6699    1.4343 C   0  0  0  0  0  0
   -0.3790    4.1929   -2.2414 H   0  0  0  0  0  0
   -0.3210    4.2423   -0.4739 H   0  0  0  0  0  0
   -1.7611    3.6256   -1.2925 H   0  0  0  0  0  0
   -0.4158    1.6810   -2.1861 H   0  0  0  0  0  0
    1.0166    2.3054   -1.3883 H   0  0  0  0  0  0
   -0.0745    1.9999    0.8440 H   0  0  0  0  0  0
   -1.5524    1.4681    0.0612 H   0  0  0  0  0  0
   -0.3799   -0.4895    0.8787 H   0  0  0  0  0  0
   -0.3606   -0.5276   -0.8772 H   0  0  0  0  0  0
    2.0019    0.2985   -0.8900 H   0  0  0  0  0  0
    1.9685    0.4434    0.8629 H   0  0  0  0  0  0
    1.6180   -2.0490    1.0393 H   0  0  0  0  0  0
    1.6350   -2.1626   -0.7365 H   0  0  0  0  0  0
    4.0469   -2.6053    1.9691 H   0  0  0  0  0  0
    3.8768   -0.8561    2.0652 H   0  0  0  0  0  0
    5.3276   -1.5650    1.2850 H   0  0  0  0  0  0
  1  2  1  0  0  0
  1 10  1  0  0  0
  1 11  1  0  0  0
  1 12  1  0  0  0
  2  3  1  0  0  0
  2 13  1  0  0  0
  2 14  1  0  0  0
  3  4  1  0  0  0
  3 15  1  0  0  0
  3 16  1  0  0  0
  4  5  1  0  0  0
  4 17  1  0  0  0
  4 18  1  0  0  0
  5  6  1  0  0  0
  5 19  1  0  0  0
  5 20  1  0  0  0
  6  7  1  0  0  0
  6 21  1  0  0  0
  6 22  1  0  0  0
  7  8  2  0  0  0
  7  9  1  0  0  0
  9 23  1  0  0  0
  9 24  1  0  0  0
  9 25  1  0  0  0
M  END
>  <i_m_Spin_multiplicity> (1)
1

>  <s_j_Task> (1)
Single Point

>  <s_j_QM_Method> (1)
DFT(b3lyp-d3)

>  <s_j_QM_Basis> (1)
cc-pvtz(-f)

>  <i_j_Number_of_canonical_orbitals> (1)
350

>  <i_j_Geometry_convergence_category> (1)
0

>  <r_j_Gas_Phase_Energy> (1)
-389.878154487664

>  <r_j_Final_Energy> (1)
-389.878154487664

>  <r_j_HOMO> (1)
-0.257002344269154

>  <r_j_LUMO> (1)
-0.0306297237664266

>  <r_j_Polarizability> (1)
100.341450750964

>  <r_j_QM_Dipole_(debye)> (1)
2.87237281986579

>  <r_j_QM_Dipole_X_(debye)> (1)
-1.67144760967157

>  <r_j_QM_Dipole_Y_(debye)> (1)
0.386060802441223

>  <r_j_QM_Dipole_Z_(debye)> (1)
2.30385450088442

>  <r_j_Lowest_Frequency_(cm-1)> (1)
70.3655467954235

>  <r_j_Highest_Frequency_(cm-1)> (1)
3100.11693427698

>  <r_j_2nd_Lowest_Frequency_(cm-1)> (1)
81.2972401791835

>  <i_j_Num_Negative_Frequencies> (1)
0

>  <r_j_Zero_Point_Energy_(kcal/mol)> (1)
142.190703761859

>  <r_j_Entropy_(cal/mol/K)_298.15K_1.00E+00atm> (1)
101.02479928553

>  <r_j_Enthalpy_(kcal/mol)_298.15K_1.00E+00atm> (1)
7.40602838279651

>  <r_j_Free_Energy_(kcal/mol)_298.15K_1.00E+00atm> (1)
-22.7145155241841

>  <r_j_Internal_Energy_(kcal/mol)_298.15K_1.00E+00atm> (1)
6.81354279396923

>  <r_j_Heat_Capacity_(cal/mol/K)_298.15K_1.00E+00atm> (1)
39.9162281690788

>  <r_j_ln(Q)_298.15K_1.00E+00atm> (1)
38.3376675357517

>  <r_j_Total_Internal_Energy_(au)_298.15K_1.00E+00atm> (1)
-389.640701104601

>  <r_j_Total_Enthalpy_(au)_298.15K_1.00E+00atm> (1)
-389.639756918708

>  <r_j_Total_Free_Energy_(au)_298.15K_1.00E+00atm> (1)
-389.687757061092

>  <r_lp_tautomer_probability> (1)
1

>  <r_epik_Ionization_Penalty> (1)
  0.0000

>  <r_epik_Ionization_Penalty_Charging> (1)
  0.0000

>  <r_epik_Ionization_Penalty_Neutral> (1)
  0.0000

>  <r_epik_State_Penalty> (1)
  0.0000

>  <r_epik_Charging_Adjusted_Penalty> (1)
0

>  <i_epik_Tot_Q> (1)
0

>  <i_epik_Tot_abs_Q> (1)
0

>  <s_lp_Force_Field> (1)
S-OPLS

>  <r_lp_Energy> (1)
2.82989

>  <b_lp_Chiralities_Consistent> (1)
1

$$$$
