8103_1-hexanol
                    3D
 Schrodinger Suite 2021-3.
 21 20  0  0  1  0            999 V2000
   -2.1060    1.4765    0.0001 C   0  0  0  0  0  0
   -0.5748    1.4459   -0.0001 C   0  0  0  0  0  0
   -0.0040    0.0231    0.0000 C   0  0  0  0  0  0
    1.5283   -0.0177   -0.0001 C   0  0  0  0  0  0
    2.0923   -1.4424   -0.0001 C   0  0  0  0  0  0
    3.6144   -1.4776    0.0002 C   0  0  0  0  0  0
    4.0224   -2.8421   -0.0001 O   0  0  0  0  0  0
   -2.4885    2.5025    0.0001 H   0  0  0  0  0  0
   -2.5098    0.9696    0.8841 H   0  0  0  0  0  0
   -2.5101    0.9694   -0.8835 H   0  0  0  0  0  0
   -0.1958    1.9872   -0.8778 H   0  0  0  0  0  0
   -0.1955    1.9874    0.8774 H   0  0  0  0  0  0
   -0.3820   -0.5201    0.8779 H   0  0  0  0  0  0
   -0.3821   -0.5203   -0.8777 H   0  0  0  0  0  0
    1.9040    0.5265   -0.8785 H   0  0  0  0  0  0
    1.9041    0.5266    0.8782 H   0  0  0  0  0  0
    1.7329   -1.9916    0.8792 H   0  0  0  0  0  0
    1.7332   -1.9915   -0.8795 H   0  0  0  0  0  0
    3.9971   -0.9437   -0.8867 H   0  0  0  0  0  0
    3.9967   -0.9442    0.8875 H   0  0  0  0  0  0
    4.9874   -2.8665    0.0001 H   0  0  0  0  0  0
  1  2  1  0  0  0
  1  8  1  0  0  0
  1  9  1  0  0  0
  1 10  1  0  0  0
  2  3  1  0  0  0
  2 11  1  0  0  0
  2 12  1  0  0  0
  3  4  1  0  0  0
  3 13  1  0  0  0
  3 14  1  0  0  0
  4  5  1  0  0  0
  4 15  1  0  0  0
  4 16  1  0  0  0
  5  6  1  0  0  0
  5 17  1  0  0  0
  5 18  1  0  0  0
  6  7  1  0  0  0
  6 19  1  0  0  0
  6 20  1  0  0  0
  7 21  1  0  0  0
M  END
>  <i_m_Spin_multiplicity> (1)
1

>  <s_j_Task> (1)
Single Point

>  <s_j_QM_Method> (1)
DFT(b3lyp-d3)

>  <s_j_QM_Basis> (1)
cc-pvtz(-f)

>  <i_j_Number_of_canonical_orbitals> (1)
286

>  <i_j_Geometry_convergence_category> (1)
0

>  <r_j_Gas_Phase_Energy> (1)
-312.423119218314

>  <r_j_Final_Energy> (1)
-312.423119218314

>  <r_j_HOMO> (1)
-0.28359213465555

>  <r_j_LUMO> (1)
0.0204836898399721

>  <r_j_Polarizability> (1)
79.7872760945614

>  <r_j_QM_Dipole_(debye)> (1)
1.48301553445163

>  <r_j_QM_Dipole_X_(debye)> (1)
0.906713791694075

>  <r_j_QM_Dipole_Y_(debye)> (1)
1.17354376442477

>  <r_j_QM_Dipole_Z_(debye)> (1)
0.000456460663964698

>  <r_j_Lowest_Frequency_(cm-1)> (1)
85.4644984659905

>  <r_j_Highest_Frequency_(cm-1)> (1)
3772.61551686778

>  <r_j_2nd_Lowest_Frequency_(cm-1)> (1)
115.648537059964

>  <i_j_Num_Negative_Frequencies> (1)
0

>  <r_j_Zero_Point_Energy_(kcal/mol)> (1)
121.549792386671

>  <r_j_Entropy_(cal/mol/K)_298.15K_1.00E+00atm> (1)
91.0021856972226

>  <r_j_Enthalpy_(kcal/mol)_298.15K_1.00E+00atm> (1)
6.21845337886889

>  <r_j_Free_Energy_(kcal/mol)_298.15K_1.00E+00atm> (1)
-20.913848286758

>  <r_j_Internal_Energy_(kcal/mol)_298.15K_1.00E+00atm> (1)
5.62596779004162

>  <r_j_Heat_Capacity_(cal/mol/K)_298.15K_1.00E+00atm> (1)
32.1763025464737

>  <r_j_ln(Q)_298.15K_1.00E+00atm> (1)
35.2984927922947

>  <r_j_Total_Internal_Energy_(au)_298.15K_1.00E+00atm> (1)
-312.220451742751

>  <r_j_Total_Enthalpy_(au)_298.15K_1.00E+00atm> (1)
-312.219507556859

>  <r_j_Total_Free_Energy_(au)_298.15K_1.00E+00atm> (1)
-312.262745632079

>  <r_lp_tautomer_probability> (1)
1

>  <r_epik_Ionization_Penalty> (1)
  0.0000

>  <r_epik_Ionization_Penalty_Charging> (1)
  0.0000

>  <r_epik_Ionization_Penalty_Neutral> (1)
  0.0000

>  <r_epik_State_Penalty> (1)
  0.0000

>  <r_epik_Charging_Adjusted_Penalty> (1)
0

>  <i_epik_Tot_Q> (1)
0

>  <i_epik_Tot_abs_Q> (1)
0

>  <s_lp_Force_Field> (1)
S-OPLS

>  <r_lp_Energy> (1)
2.98788

>  <b_lp_Chiralities_Consistent> (1)
1

$$$$
