8111_Diethylenetriamine
                    3D
 Schrodinger Suite 2021-3.
 22 21  0  0  1  0            999 V2000
   -0.5709    1.4470   -0.0276 C   0  0  0  0  0  0
   -0.1131   -0.0065    0.0936 C   0  0  0  0  0  0
    1.3620   -0.0486    0.1381 N   0  0  0  0  0  0
    1.9104   -1.4087    0.0455 C   0  0  0  0  0  0
    3.4389   -1.3233   -0.0570 C   0  0  0  0  0  0
    4.0630   -2.7129   -0.0755 N   0  3  1  0  0  0
    0.1159    2.0731   -1.2314 N   0  3  1  0  0  0
   -1.6504    1.5325   -0.1607 H   0  0  0  0  0  0
   -0.2751    2.0405    0.8411 H   0  0  0  0  0  0
   -0.6003   -0.4439    0.9760 H   0  0  0  0  0  0
   -0.4520   -0.5804   -0.7769 H   0  0  0  0  0  0
    1.6659    0.3626    1.0219 H   0  0  0  0  0  0
    1.6232   -2.0403    0.9029 H   0  0  0  0  0  0
    1.5065   -1.8836   -0.8564 H   0  0  0  0  0  0
    3.7549   -0.8211   -0.9729 H   0  0  0  0  0  0
    3.8787   -0.8065    0.7999 H   0  0  0  0  0  0
    5.0880   -2.6584   -0.1391 H   0  0  0  0  0  0
    3.7413   -3.2706   -0.8768 H   0  0  0  0  0  0
    0.1072    3.0987   -1.2047 H   0  0  0  0  0  0
   -0.3181    1.7833   -2.1150 H   0  0  0  0  0  0
    3.8417   -3.2452    0.7757 H   0  0  0  0  0  0
    1.0926    1.7332   -1.2257 H   0  0  0  0  0  0
  1  2  1  0  0  0
  1  7  1  0  0  0
  1  8  1  0  0  0
  1  9  1  0  0  0
  2  3  1  0  0  0
  2 10  1  0  0  0
  2 11  1  0  0  0
  3  4  1  0  0  0
  3 12  1  0  0  0
  4  5  1  0  0  0
  4 13  1  0  0  0
  4 14  1  0  0  0
  5  6  1  0  0  0
  5 15  1  0  0  0
  5 16  1  0  0  0
  6 17  1  0  0  0
  6 18  1  0  0  0
  6 21  1  0  0  0
  7 19  1  0  0  0
  7 20  1  0  0  0
  7 22  1  0  0  0
M  END
>  <i_m_Spin_multiplicity> (1)
1

>  <s_j_Task> (1)
Single Point

>  <s_j_QM_Method> (1)
DFT(b3lyp-d3)

>  <s_j_QM_Basis> (1)
cc-pvtz(-f)

>  <i_j_Number_of_canonical_orbitals> (1)
296

>  <i_j_Geometry_convergence_category> (1)
3

>  <r_j_Gas_Phase_Energy> (1)
-325.262586006808

>  <r_j_Final_Energy> (1)
-325.262586006808

>  <r_j_HOMO> (1)
-0.547469189611796

>  <r_j_LUMO> (1)
-0.302665942606107

>  <r_j_Polarizability> (1)
68.9987892270608

>  <r_j_QM_Dipole_(debye)> (1)
4.42067723599521

>  <r_j_QM_Dipole_X_(debye)> (1)
3.78510924611249

>  <r_j_QM_Dipole_Y_(debye)> (1)
-1.15625755231362

>  <r_j_QM_Dipole_Z_(debye)> (1)
-1.96936631751376

>  <r_j_Lowest_Frequency_(cm-1)> (1)
92.9982244036133

>  <r_j_Highest_Frequency_(cm-1)> (1)
3433.38507816779

>  <r_j_2nd_Lowest_Frequency_(cm-1)> (1)
128.707322311417

>  <i_j_Num_Negative_Frequencies> (1)
0

>  <r_j_Zero_Point_Energy_(kcal/mol)> (1)
134.941453171025

>  <r_j_Entropy_(cal/mol/K)_298.15K_1.00E+00atm> (1)
90.2674210343413

>  <r_j_Enthalpy_(kcal/mol)_298.15K_1.00E+00atm> (1)
6.10950078146519

>  <r_j_Free_Energy_(kcal/mol)_298.15K_1.00E+00atm> (1)
-20.8037307999237

>  <r_j_Internal_Energy_(kcal/mol)_298.15K_1.00E+00atm> (1)
5.51701519263791

>  <r_j_Heat_Capacity_(cal/mol/K)_298.15K_1.00E+00atm> (1)
32.0551864202035

>  <r_j_ln(Q)_298.15K_1.00E+00atm> (1)
35.1126359733089

>  <r_j_Total_Internal_Energy_(au)_298.15K_1.00E+00atm> (1)
-325.038751188246

>  <r_j_Total_Enthalpy_(au)_298.15K_1.00E+00atm> (1)
-325.037807002353

>  <r_j_Total_Free_Energy_(au)_298.15K_1.00E+00atm> (1)
-325.080695967171

>  <r_epik_Ionization_Penalty> (1)
  0.0174

>  <r_epik_Ionization_Penalty_Charging> (1)
  0.0060

>  <r_epik_Ionization_Penalty_Neutral> (1)
  0.0115

>  <r_epik_State_Penalty> (1)
  0.0342

>  <r_epik_Charging_Adjusted_Penalty> (1)
0.0401547

>  <i_epik_Tot_Q> (1)
2

>  <i_epik_Tot_abs_Q> (1)
2

>  <s_lp_Force_Field> (1)
S-OPLS

>  <r_lp_Energy> (1)
15.0704

>  <b_lp_Chiralities_Consistent> (1)
1

$$$$
