8115_Bis(2-chloroethyl) ether
                    3D
 Schrodinger Suite 2021-3.
 15 14  0  0  1  0            999 V2000
   -0.0102    0.0034   -0.0230 C   0  0  0  0  0  0
   -0.4907    1.4395   -0.0071 C   0  0  0  0  0  0
   -0.0547    2.2868    1.5371 Cl  0  0  0  0  0  0
    1.4003   -0.0023   -0.0848 O   0  0  0  0  0  0
    1.9626   -1.2997   -0.0168 C   0  0  0  0  0  0
    3.4706   -1.1066   -0.0461 C   0  0  0  0  0  0
    4.3020   -2.7142    0.0130 Cl  0  0  0  0  0  0
   -0.3734   -0.5294    0.8694 H   0  0  0  0  0  0
   -0.4441   -0.4924   -0.9101 H   0  0  0  0  0  0
   -0.0301    2.0039   -0.8193 H   0  0  0  0  0  0
   -1.5775    1.4813   -0.0975 H   0  0  0  0  0  0
    1.6658   -1.8171    0.9083 H   0  0  0  0  0  0
    1.6431   -1.9220   -0.8677 H   0  0  0  0  0  0
    3.7808   -0.6059   -0.9639 H   0  0  0  0  0  0
    3.8041   -0.5267    0.8151 H   0  0  0  0  0  0
  1  2  1  0  0  0
  1  4  1  0  0  0
  1  8  1  0  0  0
  1  9  1  0  0  0
  2  3  1  0  0  0
  2 10  1  0  0  0
  2 11  1  0  0  0
  4  5  1  0  0  0
  5  6  1  0  0  0
  5 12  1  0  0  0
  5 13  1  0  0  0
  6  7  1  0  0  0
  6 14  1  0  0  0
  6 15  1  0  0  0
M  END
>  <i_m_Spin_multiplicity> (1)
1

>  <s_j_Task> (1)
Single Point

>  <s_j_QM_Method> (1)
DFT(b3lyp-d3)

>  <s_j_QM_Basis> (1)
cc-pvtz(-f)

>  <i_j_Number_of_canonical_orbitals> (1)
241

>  <i_j_Geometry_convergence_category> (1)
0

>  <r_j_Gas_Phase_Energy> (1)
-1153.01661918027

>  <r_j_Final_Energy> (1)
-1153.01661918027

>  <r_j_HOMO> (1)
-0.285793917192327

>  <r_j_LUMO> (1)
-0.00169411979876578

>  <r_j_Polarizability> (1)
77.6843055012751

>  <r_j_QM_Dipole_(debye)> (1)
2.5633726091979

>  <r_j_QM_Dipole_X_(debye)> (1)
-1.99994897434088

>  <r_j_QM_Dipole_Y_(debye)> (1)
-0.273711560967664

>  <r_j_QM_Dipole_Z_(debye)> (1)
-1.57992569920599

>  <r_j_Lowest_Frequency_(cm-1)> (1)
52.9792471057571

>  <r_j_Highest_Frequency_(cm-1)> (1)
3107.88406089142

>  <r_j_2nd_Lowest_Frequency_(cm-1)> (1)
100.207746253941

>  <i_j_Num_Negative_Frequencies> (1)
0

>  <r_j_Zero_Point_Energy_(kcal/mol)> (1)
74.7863402212777

>  <r_j_Entropy_(cal/mol/K)_298.15K_1.00E+00atm> (1)
91.786511707816

>  <r_j_Enthalpy_(kcal/mol)_298.15K_1.00E+00atm> (1)
5.77028395063196

>  <r_j_Free_Energy_(kcal/mol)_298.15K_1.00E+00atm> (1)
-21.5958645150534

>  <r_j_Internal_Energy_(kcal/mol)_298.15K_1.00E+00atm> (1)
5.17779836180468

>  <r_j_Heat_Capacity_(cal/mol/K)_298.15K_1.00E+00atm> (1)
27.7428754842763

>  <r_j_ln(Q)_298.15K_1.00E+00atm> (1)
36.4496030321999

>  <r_j_Total_Internal_Energy_(au)_298.15K_1.00E+00atm> (1)
-1152.88918821324

>  <r_j_Total_Enthalpy_(au)_298.15K_1.00E+00atm> (1)
-1152.88824402734

>  <r_j_Total_Free_Energy_(au)_298.15K_1.00E+00atm> (1)
-1152.93185476116

>  <r_lp_tautomer_probability> (1)
1

>  <r_epik_Ionization_Penalty> (1)
  0.0000

>  <r_epik_Ionization_Penalty_Charging> (1)
  0.0000

>  <r_epik_Ionization_Penalty_Neutral> (1)
  0.0000

>  <r_epik_State_Penalty> (1)
  0.0000

>  <r_epik_Charging_Adjusted_Penalty> (1)
0

>  <i_epik_Tot_Q> (1)
0

>  <i_epik_Tot_abs_Q> (1)
0

>  <s_lp_Force_Field> (1)
S-OPLS

>  <r_lp_Energy> (1)
0.437972

>  <b_lp_Chiralities_Consistent> (1)
1

$$$$
