8125_1-octene
                    3D
 Schrodinger Suite 2021-3.
 24 23  0  0  1  0            999 V2000
   -2.2057    1.5314    0.1921 C   0  0  0  0  0  0
   -0.6789    1.4994    0.0746 C   0  0  0  0  0  0
   -0.1108    0.0760    0.0311 C   0  0  0  0  0  0
    1.4175    0.0317   -0.0809 C   0  0  0  0  0  0
    1.9748   -1.3967   -0.1243 C   0  0  0  0  0  0
    3.5162   -1.4816   -0.1464 C   0  0  0  0  0  0
    4.1419   -0.8742   -1.3732 C   0  0  0  0  0  0
    4.8091   -1.5529   -2.3069 C   0  0  0  0  0  0
   -2.5866    2.5575    0.2217 H   0  0  0  0  0  0
   -2.5412    1.0245    1.1043 H   0  0  0  0  0  0
   -2.6770    1.0247   -0.6580 H   0  0  0  0  0  0
   -0.3675    2.0405   -0.8293 H   0  0  0  0  0  0
   -0.2331    2.0404    0.9204 H   0  0  0  0  0  0
   -0.4259   -0.4677    0.9335 H   0  0  0  0  0  0
   -0.5534   -0.4655   -0.8173 H   0  0  0  0  0  0
    1.7259    0.5801   -0.9807 H   0  0  0  0  0  0
    1.8603    0.5687    0.7707 H   0  0  0  0  0  0
    1.6097   -1.9474    0.7531 H   0  0  0  0  0  0
    1.5769   -1.9173   -1.0052 H   0  0  0  0  0  0
    3.9053   -0.9740    0.7488 H   0  0  0  0  0  0
    3.8195   -2.5325   -0.0677 H   0  0  0  0  0  0
    4.0224    0.2026   -1.4927 H   0  0  0  0  0  0
    4.9582   -2.6279   -2.2316 H   0  0  0  0  0  0
    5.2321   -1.0633   -3.1793 H   0  0  0  0  0  0
  1  2  1  0  0  0
  1  9  1  0  0  0
  1 10  1  0  0  0
  1 11  1  0  0  0
  2  3  1  0  0  0
  2 12  1  0  0  0
  2 13  1  0  0  0
  3  4  1  0  0  0
  3 14  1  0  0  0
  3 15  1  0  0  0
  4  5  1  0  0  0
  4 16  1  0  0  0
  4 17  1  0  0  0
  5  6  1  0  0  0
  5 18  1  0  0  0
  5 19  1  0  0  0
  6  7  1  0  0  0
  6 20  1  0  0  0
  6 21  1  0  0  0
  7  8  2  0  0  0
  7 22  1  0  0  0
  8 23  1  0  0  0
  8 24  1  0  0  0
M  END
>  <i_m_Spin_multiplicity> (1)
1

>  <s_j_Task> (1)
Single Point

>  <s_j_QM_Method> (1)
DFT(b3lyp-d3)

>  <s_j_QM_Basis> (1)
cc-pvtz(-f)

>  <i_j_Number_of_canonical_orbitals> (1)
325

>  <i_j_Geometry_convergence_category> (1)
3

>  <r_j_Gas_Phase_Energy> (1)
-314.60204444981

>  <r_j_Final_Energy> (1)
-314.60204444981

>  <r_j_HOMO> (1)
-0.258149393275859

>  <r_j_LUMO> (1)
0.00600822978917158

>  <r_j_Polarizability> (1)
98.8922896577297

>  <r_j_QM_Dipole_(debye)> (1)
0.391884749875508

>  <r_j_QM_Dipole_X_(debye)> (1)
-0.248552404373

>  <r_j_QM_Dipole_Y_(debye)> (1)
0.0886893199350152

>  <r_j_QM_Dipole_Z_(debye)> (1)
0.289705995786858

>  <r_j_Lowest_Frequency_(cm-1)> (1)
79.1427485328055

>  <r_j_Highest_Frequency_(cm-1)> (1)
3167.03405636327

>  <r_j_2nd_Lowest_Frequency_(cm-1)> (1)
112.465361726698

>  <i_j_Num_Negative_Frequencies> (1)
0

>  <r_j_Zero_Point_Energy_(kcal/mol)> (1)
139.448692670279

>  <r_j_Entropy_(cal/mol/K)_298.15K_1.00E+00atm> (1)
95.366074376125

>  <r_j_Enthalpy_(kcal/mol)_298.15K_1.00E+00atm> (1)
6.73092799928652

>  <r_j_Free_Energy_(kcal/mol)_298.15K_1.00E+00atm> (1)
-21.7024670759551

>  <r_j_Internal_Energy_(kcal/mol)_298.15K_1.00E+00atm> (1)
6.13844241045925

>  <r_j_Heat_Capacity_(cal/mol/K)_298.15K_1.00E+00atm> (1)
36.2285805539684

>  <r_j_ln(Q)_298.15K_1.00E+00atm> (1)
36.6295273424481

>  <r_j_Total_Internal_Energy_(au)_298.15K_1.00E+00atm> (1)
-314.370036580541

>  <r_j_Total_Enthalpy_(au)_298.15K_1.00E+00atm> (1)
-314.369092394649

>  <r_j_Total_Free_Energy_(au)_298.15K_1.00E+00atm> (1)
-314.414403894211

>  <r_lp_tautomer_probability> (1)
1

>  <r_epik_Ionization_Penalty> (1)
  0.0000

>  <r_epik_Ionization_Penalty_Charging> (1)
  0.0000

>  <r_epik_Ionization_Penalty_Neutral> (1)
  0.0000

>  <r_epik_State_Penalty> (1)
  0.0000

>  <r_epik_Charging_Adjusted_Penalty> (1)
0

>  <i_epik_Tot_Q> (1)
0

>  <i_epik_Tot_abs_Q> (1)
0

>  <s_lp_Force_Field> (1)
S-OPLS

>  <r_lp_Energy> (1)
0.290157

>  <b_lp_Chiralities_Consistent> (1)
1

$$$$
