8126_Cis-2-octene
                    3D
 Schrodinger Suite 2021-3.
 24 23  0  0  1  0            999 V2000
   -2.2189    1.4436    0.1001 C   0  0  0  0  0  0
   -0.6888    1.4767    0.0431 C   0  0  0  0  0  0
   -0.0597    0.0795   -0.0085 C   0  0  0  0  0  0
    1.4715    0.1047   -0.0597 C   0  0  0  0  0  0
    2.1011   -1.2995   -0.1199 C   0  0  0  0  0  0
    3.6041   -1.2622   -0.1138 C   0  0  0  0  0  0
    4.3944   -1.6957   -1.0983 C   0  0  0  0  0  0
    5.8951   -1.6361   -1.0969 C   0  0  0  0  0  0
   -2.6430    2.4525    0.1350 H   0  0  0  0  0  0
   -2.5686    0.9038    0.9877 H   0  0  0  0  0  0
   -2.6352    0.9369   -0.7782 H   0  0  0  0  0  0
   -0.3650    2.0508   -0.8357 H   0  0  0  0  0  0
   -0.2993    2.0159    0.9174 H   0  0  0  0  0  0
   -0.3856   -0.4984    0.8685 H   0  0  0  0  0  0
   -0.4455   -0.4600   -0.8856 H   0  0  0  0  0  0
    1.8041    0.6817   -0.9328 H   0  0  0  0  0  0
    1.8572    0.6373    0.8211 H   0  0  0  0  0  0
    1.7425   -1.8799    0.7437 H   0  0  0  0  0  0
    1.7425   -1.8236   -1.0155 H   0  0  0  0  0  0
    4.0644   -0.8211    0.7732 H   0  0  0  0  0  0
    3.9320   -2.1319   -1.9856 H   0  0  0  0  0  0
    6.2703   -1.0495   -1.9454 H   0  0  0  0  0  0
    6.3345   -2.6376   -1.1913 H   0  0  0  0  0  0
    6.2800   -1.1839   -0.1774 H   0  0  0  0  0  0
  1  2  1  0  0  0
  1  9  1  0  0  0
  1 10  1  0  0  0
  1 11  1  0  0  0
  2  3  1  0  0  0
  2 12  1  0  0  0
  2 13  1  0  0  0
  3  4  1  0  0  0
  3 14  1  0  0  0
  3 15  1  0  0  0
  4  5  1  0  0  0
  4 16  1  0  0  0
  4 17  1  0  0  0
  5  6  1  0  0  0
  5 18  1  0  0  0
  5 19  1  0  0  0
  6  7  2  0  0  0
  6 20  1  0  0  0
  7  8  1  0  0  0
  7 21  1  0  0  0
  8 22  1  0  0  0
  8 23  1  0  0  0
  8 24  1  0  0  0
M  END
>  <i_m_Spin_multiplicity> (1)
1

>  <s_j_Task> (1)
Single Point

>  <s_j_QM_Method> (1)
DFT(b3lyp-d3)

>  <s_j_QM_Basis> (1)
cc-pvtz(-f)

>  <i_j_Number_of_canonical_orbitals> (1)
325

>  <i_j_Geometry_convergence_category> (1)
1

>  <r_j_Gas_Phase_Energy> (1)
-314.607206899857

>  <r_j_Final_Energy> (1)
-314.607206899857

>  <r_j_HOMO> (1)
-0.247446323006526

>  <r_j_LUMO> (1)
0.014180045867677

>  <r_j_Polarizability> (1)
101.142092299861

>  <r_j_QM_Dipole_(debye)> (1)
0.0820695136204925

>  <r_j_QM_Dipole_X_(debye)> (1)
0.0212297769905058

>  <r_j_QM_Dipole_Y_(debye)> (1)
0.0721305469086742

>  <r_j_QM_Dipole_Z_(debye)> (1)
-0.0328920330398281

>  <r_j_Lowest_Frequency_(cm-1)> (1)
75.1534312323133

>  <r_j_Highest_Frequency_(cm-1)> (1)
3076.15865400443

>  <r_j_2nd_Lowest_Frequency_(cm-1)> (1)
97.5708981513897

>  <i_j_Num_Negative_Frequencies> (1)
0

>  <r_j_Zero_Point_Energy_(kcal/mol)> (1)
139.035588510559

>  <r_j_Entropy_(cal/mol/K)_298.15K_1.00E+00atm> (1)
95.939972077635

>  <r_j_Enthalpy_(kcal/mol)_298.15K_1.00E+00atm> (1)
6.87219151402755

>  <r_j_Free_Energy_(kcal/mol)_298.15K_1.00E+00atm> (1)
-21.7323111609193

>  <r_j_Internal_Energy_(kcal/mol)_298.15K_1.00E+00atm> (1)
6.27970592520028

>  <r_j_Heat_Capacity_(cal/mol/K)_298.15K_1.00E+00atm> (1)
36.824258319574

>  <r_j_ln(Q)_298.15K_1.00E+00atm> (1)
36.6798983312569

>  <r_j_Total_Internal_Energy_(au)_298.15K_1.00E+00atm> (1)
-314.375632236234

>  <r_j_Total_Enthalpy_(au)_298.15K_1.00E+00atm> (1)
-314.374688050342

>  <r_j_Total_Free_Energy_(au)_298.15K_1.00E+00atm> (1)
-314.420272227223

>  <r_lp_tautomer_probability> (1)
1

>  <r_epik_Ionization_Penalty> (1)
  0.0000

>  <r_epik_Ionization_Penalty_Charging> (1)
  0.0000

>  <r_epik_Ionization_Penalty_Neutral> (1)
  0.0000

>  <r_epik_State_Penalty> (1)
  0.0000

>  <r_epik_Charging_Adjusted_Penalty> (1)
0

>  <i_epik_Tot_Q> (1)
0

>  <i_epik_Tot_abs_Q> (1)
0

>  <s_lp_Force_Field> (1)
S-OPLS

>  <r_lp_Energy> (1)
-2.195048

>  <b_lp_Chiralities_Consistent> (1)
1

$$$$
