8129_Heptanol
                    3D
 Schrodinger Suite 2021-3.
 24 23  0  0  1  0            999 V2000
   -2.6585    2.9189    0.0026 C   0  0  0  0  0  0
   -2.1115    1.4892    0.0516 C   0  0  0  0  0  0
   -0.5818    1.4288   -0.0319 C   0  0  0  0  0  0
   -0.0261    0.0012    0.0131 C   0  0  0  0  0  0
    1.5033   -0.0611   -0.0648 C   0  0  0  0  0  0
    2.0562   -1.4906   -0.0398 C   0  0  0  0  0  0
    3.5853   -1.5539   -0.0709 C   0  0  0  0  0  0
    4.1448   -1.0093   -1.2631 O   0  0  0  0  0  0
   -3.7515    2.9344    0.0646 H   0  0  0  0  0  0
   -2.3699    3.4193   -0.9289 H   0  0  0  0  0  0
   -2.2685    3.5186    0.8331 H   0  0  0  0  0  0
   -2.4420    0.9998    0.9780 H   0  0  0  0  0  0
   -2.5412    0.9020   -0.7714 H   0  0  0  0  0  0
   -0.2494    1.9199   -0.9579 H   0  0  0  0  0  0
   -0.1502    2.0145    0.7927 H   0  0  0  0  0  0
   -0.3614   -0.4915    0.9368 H   0  0  0  0  0  0
   -0.4540   -0.5825   -0.8141 H   0  0  0  0  0  0
    1.8304    0.4387   -0.9877 H   0  0  0  0  0  0
    1.9337    0.5129    0.7696 H   0  0  0  0  0  0
    1.7045   -2.0052    0.8654 H   0  0  0  0  0  0
    1.6645   -2.0509   -0.8982 H   0  0  0  0  0  0
    3.9965   -1.0566    0.8242 H   0  0  0  0  0  0
    3.9164   -2.5972   -0.0397 H   0  0  0  0  0  0
    4.0031   -0.0547   -1.2446 H   0  0  0  0  0  0
  1  2  1  0  0  0
  1  9  1  0  0  0
  1 10  1  0  0  0
  1 11  1  0  0  0
  2  3  1  0  0  0
  2 12  1  0  0  0
  2 13  1  0  0  0
  3  4  1  0  0  0
  3 14  1  0  0  0
  3 15  1  0  0  0
  4  5  1  0  0  0
  4 16  1  0  0  0
  4 17  1  0  0  0
  5  6  1  0  0  0
  5 18  1  0  0  0
  5 19  1  0  0  0
  6  7  1  0  0  0
  6 20  1  0  0  0
  6 21  1  0  0  0
  7  8  1  0  0  0
  7 22  1  0  0  0
  7 23  1  0  0  0
  8 24  1  0  0  0
M  END
>  <i_m_Spin_multiplicity> (1)
1

>  <s_j_Task> (1)
Single Point

>  <s_j_QM_Method> (1)
DFT(b3lyp-d3)

>  <s_j_QM_Basis> (1)
cc-pvtz(-f)

>  <i_j_Number_of_canonical_orbitals> (1)
327

>  <i_j_Geometry_convergence_category> (1)
0

>  <r_j_Gas_Phase_Energy> (1)
-351.753391700714

>  <r_j_Final_Energy> (1)
-351.753391700714

>  <r_j_HOMO> (1)
-0.275223047965047

>  <r_j_LUMO> (1)
0.0280855903583345

>  <r_j_Polarizability> (1)
91.8183463092429

>  <r_j_QM_Dipole_(debye)> (1)
1.67489432060405

>  <r_j_QM_Dipole_X_(debye)> (1)
-0.987638974470081

>  <r_j_QM_Dipole_Y_(debye)> (1)
0.791968680610196

>  <r_j_QM_Dipole_Z_(debye)> (1)
1.09664299123823

>  <r_j_Lowest_Frequency_(cm-1)> (1)
79.8257696820149

>  <r_j_Highest_Frequency_(cm-1)> (1)
3773.59078776105

>  <r_j_2nd_Lowest_Frequency_(cm-1)> (1)
105.853156713854

>  <i_j_Num_Negative_Frequencies> (1)
0

>  <r_j_Zero_Point_Energy_(kcal/mol)> (1)
139.536020277419

>  <r_j_Entropy_(cal/mol/K)_298.15K_1.00E+00atm> (1)
96.7843524660507

>  <r_j_Enthalpy_(kcal/mol)_298.15K_1.00E+00atm> (1)
6.90879024396376

>  <r_j_Free_Energy_(kcal/mol)_298.15K_1.00E+00atm> (1)
-21.9474644437892

>  <r_j_Internal_Energy_(kcal/mol)_298.15K_1.00E+00atm> (1)
6.31630465513648

>  <r_j_Heat_Capacity_(cal/mol/K)_298.15K_1.00E+00atm> (1)
36.8290942613544

>  <r_j_ln(Q)_298.15K_1.00E+00atm> (1)
37.0430350672842

>  <r_j_Total_Internal_Energy_(au)_298.15K_1.00E+00atm> (1)
-351.520961224513

>  <r_j_Total_Enthalpy_(au)_298.15K_1.00E+00atm> (1)
-351.520017038621

>  <r_j_Total_Free_Energy_(au)_298.15K_1.00E+00atm> (1)
-351.566002407874

>  <r_lp_tautomer_probability> (1)
1

>  <r_epik_Ionization_Penalty> (1)
  0.0000

>  <r_epik_Ionization_Penalty_Charging> (1)
  0.0000

>  <r_epik_Ionization_Penalty_Neutral> (1)
  0.0000

>  <r_epik_State_Penalty> (1)
  0.0000

>  <r_epik_Charging_Adjusted_Penalty> (1)
0

>  <i_epik_Tot_Q> (1)
0

>  <i_epik_Tot_abs_Q> (1)
0

>  <s_lp_Force_Field> (1)
S-OPLS

>  <r_lp_Energy> (1)
3.693983

>  <b_lp_Chiralities_Consistent> (1)
1

$$$$
