81313_Diethylene Glycol Propyl Ether
                    3D
 Schrodinger Suite 2021-3.
 26 25  0  0  1  0            999 V2000
   -3.7305    3.1149    0.0487 C   0  0  0  0  0  0
   -2.2191    2.8893   -0.0422 C   0  0  0  0  0  0
   -1.8499    1.4125   -0.0069 C   0  0  0  0  0  0
   -0.4410    1.3028   -0.0885 O   0  0  0  0  0  0
    0.0225   -0.0306   -0.0550 C   0  0  0  0  0  0
    1.5373   -0.0225   -0.0169 C   0  0  0  0  0  0
    1.9609    0.3978    1.2643 O   0  0  0  0  0  0
    3.3657    0.4999    1.3792 C   0  0  0  0  0  0
    3.7135    1.0215    2.7590 C   0  0  0  0  0  0
    3.3862    2.4021    2.8165 O   0  0  0  0  0  0
   -3.9727    4.1816    0.0227 H   0  0  0  0  0  0
   -4.1392    2.7042    0.9791 H   0  0  0  0  0  0
   -4.2566    2.6345   -0.7843 H   0  0  0  0  0  0
   -1.8216    3.3232   -0.9671 H   0  0  0  0  0  0
   -1.7048    3.3911    0.7853 H   0  0  0  0  0  0
   -2.2205    0.9480    0.9244 H   0  0  0  0  0  0
   -2.3320    0.8767   -0.8454 H   0  0  0  0  0  0
   -0.3554   -0.5613    0.8346 H   0  0  0  0  0  0
   -0.3169   -0.5882   -0.9461 H   0  0  0  0  0  0
    1.9124   -1.0373   -0.2415 H   0  0  0  0  0  0
    1.9132    0.6548   -0.8008 H   0  0  0  0  0  0
    3.8438   -0.4857    1.2329 H   0  0  0  0  0  0
    3.7770    1.1871    0.6217 H   0  0  0  0  0  0
    3.1535    0.4324    3.5015 H   0  0  0  0  0  0
    4.7895    0.8512    2.9343 H   0  0  0  0  0  0
    3.4456    2.6869    3.7364 H   0  0  0  0  0  0
  1  2  1  0  0  0
  1 11  1  0  0  0
  1 12  1  0  0  0
  1 13  1  0  0  0
  2  3  1  0  0  0
  2 14  1  0  0  0
  2 15  1  0  0  0
  3  4  1  0  0  0
  3 16  1  0  0  0
  3 17  1  0  0  0
  4  5  1  0  0  0
  5  6  1  0  0  0
  5 18  1  0  0  0
  5 19  1  0  0  0
  6  7  1  0  0  0
  6 20  1  0  0  0
  6 21  1  0  0  0
  7  8  1  0  0  0
  8  9  1  0  0  0
  8 22  1  0  0  0
  8 23  1  0  0  0
  9 10  1  0  0  0
  9 24  1  0  0  0
  9 25  1  0  0  0
 10 26  1  0  0  0
M  END
>  <i_m_Spin_multiplicity> (1)
1

>  <s_j_Task> (1)
Single Point

>  <s_j_QM_Method> (1)
DFT(b3lyp-d3)

>  <s_j_QM_Basis> (1)
cc-pvtz(-f)

>  <i_j_Number_of_canonical_orbitals> (1)
374

>  <i_j_Geometry_convergence_category> (1)
3

>  <r_j_Gas_Phase_Energy> (1)
-502.216023717835

>  <r_j_Final_Energy> (1)
-502.216023717835

>  <r_j_HOMO> (1)
-0.248520674615353

>  <r_j_LUMO> (1)
0.0234336780039064

>  <r_j_Polarizability> (1)
102.215567076516

>  <r_j_QM_Dipole_(debye)> (1)
1.69844575334535

>  <r_j_QM_Dipole_X_(debye)> (1)
0.352876171227732

>  <r_j_QM_Dipole_Y_(debye)> (1)
-1.54853186980142

>  <r_j_QM_Dipole_Z_(debye)> (1)
0.601868285462723

>  <r_j_Lowest_Frequency_(cm-1)> (1)
39.0235814741579

>  <r_j_Highest_Frequency_(cm-1)> (1)
3782.02211721885

>  <r_j_2nd_Lowest_Frequency_(cm-1)> (1)
73.7220083922119

>  <i_j_Num_Negative_Frequencies> (1)
0

>  <r_j_Zero_Point_Energy_(kcal/mol)> (1)
144.855464277403

>  <r_j_Entropy_(cal/mol/K)_298.15K_1.00E+00atm> (1)
107.488237190614

>  <r_j_Enthalpy_(kcal/mol)_298.15K_1.00E+00atm> (1)
8.16675408373568

>  <r_j_Free_Energy_(kcal/mol)_298.15K_1.00E+00atm> (1)
-23.8808638346458

>  <r_j_Internal_Energy_(kcal/mol)_298.15K_1.00E+00atm> (1)
7.5742684949084

>  <r_j_Heat_Capacity_(cal/mol/K)_298.15K_1.00E+00atm> (1)
43.3197153107479

>  <r_j_ln(Q)_298.15K_1.00E+00atm> (1)
40.306235771766

>  <r_j_Total_Internal_Energy_(au)_298.15K_1.00E+00atm> (1)
-501.973111474977

>  <r_j_Total_Enthalpy_(au)_298.15K_1.00E+00atm> (1)
-501.972167289084

>  <r_j_Total_Free_Energy_(au)_298.15K_1.00E+00atm> (1)
-502.023238419403

>  <r_lp_tautomer_probability> (1)
1

>  <r_epik_Ionization_Penalty> (1)
  0.0000

>  <r_epik_Ionization_Penalty_Charging> (1)
  0.0000

>  <r_epik_Ionization_Penalty_Neutral> (1)
  0.0000

>  <r_epik_State_Penalty> (1)
  0.0000

>  <r_epik_Charging_Adjusted_Penalty> (1)
0

>  <i_epik_Tot_Q> (1)
0

>  <i_epik_Tot_abs_Q> (1)
0

>  <s_lp_Force_Field> (1)
S-OPLS

>  <r_lp_Energy> (1)
5.990165

>  <b_lp_Chiralities_Consistent> (1)
1

$$$$
