8132_Butylethanolamine
                    3D
 Schrodinger Suite 2021-3.
 24 23  0  0  1  0            999 V2000
   -2.5488    2.9499    0.0184 C   0  0  0  0  0  0
   -2.0546    1.5006    0.0304 C   0  0  0  0  0  0
   -0.5217    1.4126   -0.0593 C   0  0  0  0  0  0
   -0.0463   -0.0360   -0.0421 C   0  0  0  0  0  0
    1.4632   -0.1168   -0.1194 N   0  3  1  0  0  0
    2.0619   -1.5020   -0.1167 C   0  0  0  0  0  0
    3.5658   -1.3532    0.1364 C   0  0  0  0  0  0
    3.7377   -0.4353    1.2117 O   0  0  0  0  0  0
   -3.6391    2.9865    0.0828 H   0  0  0  0  0  0
   -2.2509    3.4630   -0.9019 H   0  0  0  0  0  0
   -2.1448    3.5138    0.8657 H   0  0  0  0  0  0
   -2.3917    1.0000    0.9468 H   0  0  0  0  0  0
   -2.4974    0.9491   -0.8086 H   0  0  0  0  0  0
   -0.1813    1.9043   -0.9810 H   0  0  0  0  0  0
   -0.0727    1.9587    0.7812 H   0  0  0  0  0  0
   -0.3351   -0.5484    0.8794 H   0  0  0  0  0  0
   -0.4346   -0.6054   -0.8908 H   0  0  0  0  0  0
    1.7839    0.3949   -0.9488 H   0  0  0  0  0  0
    1.5756   -2.0454    0.6969 H   0  0  0  0  0  0
    1.8307   -1.9875   -1.0671 H   0  0  0  0  0  0
    3.9995   -2.3387    0.3319 H   0  0  0  0  0  0
    4.0648   -0.9408   -0.7493 H   0  0  0  0  0  0
    4.0587   -0.8898    2.0006 H   0  0  0  0  0  0
    1.8982    0.3625    0.6863 H   0  0  0  0  0  0
  1  2  1  0  0  0
  1  9  1  0  0  0
  1 10  1  0  0  0
  1 11  1  0  0  0
  2  3  1  0  0  0
  2 12  1  0  0  0
  2 13  1  0  0  0
  3  4  1  0  0  0
  3 14  1  0  0  0
  3 15  1  0  0  0
  4  5  1  0  0  0
  4 16  1  0  0  0
  4 17  1  0  0  0
  5  6  1  0  0  0
  5 18  1  0  0  0
  5 24  1  0  0  0
  6  7  1  0  0  0
  6 19  1  0  0  0
  6 20  1  0  0  0
  7  8  1  0  0  0
  7 21  1  0  0  0
  7 22  1  0  0  0
  8 23  1  0  0  0
M  END
>  <i_m_Spin_multiplicity> (1)
1

>  <s_j_Task> (1)
Single Point

>  <s_j_QM_Method> (1)
DFT(b3lyp-d3)

>  <s_j_QM_Basis> (1)
cc-pvtz(-f)

>  <i_j_Number_of_canonical_orbitals> (1)
327

>  <i_j_Geometry_convergence_category> (1)
3

>  <r_j_Gas_Phase_Energy> (1)
-368.171969514479

>  <r_j_Final_Energy> (1)
-368.171969514479

>  <r_j_HOMO> (1)
-0.449009931451037

>  <r_j_LUMO> (1)
-0.154015900386154

>  <r_j_Polarizability> (1)
83.8467889677141

>  <r_j_QM_Dipole_(debye)> (1)
4.55580088291348

>  <r_j_QM_Dipole_X_(debye)> (1)
2.86017873269238

>  <r_j_QM_Dipole_Y_(debye)> (1)
-3.50857063436206

>  <r_j_QM_Dipole_Z_(debye)> (1)
-0.514423371846316

>  <r_j_Lowest_Frequency_(cm-1)> (1)
73.9819856687551

>  <r_j_Highest_Frequency_(cm-1)> (1)
3788.37516627

>  <r_j_2nd_Lowest_Frequency_(cm-1)> (1)
113.517201523916

>  <i_j_Num_Negative_Frequencies> (1)
0

>  <r_j_Zero_Point_Energy_(kcal/mol)> (1)
142.045778377223

>  <r_j_Entropy_(cal/mol/K)_298.15K_1.00E+00atm> (1)
96.7854113646457

>  <r_j_Enthalpy_(kcal/mol)_298.15K_1.00E+00atm> (1)
6.91961144107111

>  <r_j_Free_Energy_(kcal/mol)_298.15K_1.00E+00atm> (1)
-21.936958957298

>  <r_j_Internal_Energy_(kcal/mol)_298.15K_1.00E+00atm> (1)
6.32712585224383

>  <r_j_Heat_Capacity_(cal/mol/K)_298.15K_1.00E+00atm> (1)
36.6994163825184

>  <r_j_ln(Q)_298.15K_1.00E+00atm> (1)
37.025303857126

>  <r_j_Total_Internal_Energy_(au)_298.15K_1.00E+00atm> (1)
-367.935522239461

>  <r_j_Total_Enthalpy_(au)_298.15K_1.00E+00atm> (1)
-367.934578053569

>  <r_j_Total_Free_Energy_(au)_298.15K_1.00E+00atm> (1)
-367.980563925939

>  <r_epik_Ionization_Penalty> (1)
  0.0028

>  <r_epik_Ionization_Penalty_Charging> (1)
  0.0028

>  <r_epik_Ionization_Penalty_Neutral> (1)
  0.0000

>  <r_epik_State_Penalty> (1)
  0.0019

>  <r_epik_Charging_Adjusted_Penalty> (1)
0.00468458

>  <i_epik_Tot_Q> (1)
1

>  <i_epik_Tot_abs_Q> (1)
1

>  <s_lp_Force_Field> (1)
S-OPLS

>  <r_lp_Energy> (1)
7.21434

>  <b_lp_Chiralities_Consistent> (1)
1

$$$$
