8133_Butyl cellosolve
                    3D
 Schrodinger Suite 2021-3.
 22 21  0  0  1  0            999 V2000
   -2.5575    2.8962    0.0000 C   0  0  0  0  0  0
   -2.0365    1.4560    0.0002 C   0  0  0  0  0  0
   -0.5055    1.3800    0.0000 C   0  0  0  0  0  0
    0.0120   -0.0514    0.0000 C   0  0  0  0  0  0
    1.4294   -0.0203   -0.0002 O   0  0  0  0  0  0
    2.0160   -1.3069   -0.0002 C   0  0  0  0  0  0
    3.5249   -1.1236    0.0002 C   0  0  0  0  0  0
    4.0987   -2.4251    0.0000 O   0  0  0  0  0  0
   -3.6518    2.9269    0.0002 H   0  0  0  0  0  0
   -2.2074    3.4410   -0.8840 H   0  0  0  0  0  0
   -2.2071    3.4413    0.8837 H   0  0  0  0  0  0
   -2.4284    0.9245    0.8781 H   0  0  0  0  0  0
   -2.4286    0.9242   -0.8775 H   0  0  0  0  0  0
   -0.1019    1.8972   -0.8796 H   0  0  0  0  0  0
   -0.1017    1.8973    0.8793 H   0  0  0  0  0  0
   -0.3605   -0.5940    0.8870 H   0  0  0  0  0  0
   -0.3607   -0.5941   -0.8868 H   0  0  0  0  0  0
    1.7166   -1.8871    0.8880 H   0  0  0  0  0  0
    1.7170   -1.8868   -0.8888 H   0  0  0  0  0  0
    3.8126   -0.5404   -0.8881 H   0  0  0  0  0  0
    3.8122   -0.5408    0.8888 H   0  0  0  0  0  0
    5.0586   -2.3293    0.0002 H   0  0  0  0  0  0
  1  2  1  0  0  0
  1  9  1  0  0  0
  1 10  1  0  0  0
  1 11  1  0  0  0
  2  3  1  0  0  0
  2 12  1  0  0  0
  2 13  1  0  0  0
  3  4  1  0  0  0
  3 14  1  0  0  0
  3 15  1  0  0  0
  4  5  1  0  0  0
  4 16  1  0  0  0
  4 17  1  0  0  0
  5  6  1  0  0  0
  6  7  1  0  0  0
  6 18  1  0  0  0
  6 19  1  0  0  0
  7  8  1  0  0  0
  7 20  1  0  0  0
  7 21  1  0  0  0
  8 22  1  0  0  0
M  END
>  <i_m_Spin_multiplicity> (1)
1

>  <s_j_Task> (1)
Single Point

>  <s_j_QM_Method> (1)
DFT(b3lyp-d3)

>  <s_j_QM_Basis> (1)
cc-pvtz(-f)

>  <i_j_Number_of_canonical_orbitals> (1)
309

>  <i_j_Geometry_convergence_category> (1)
0

>  <r_j_Gas_Phase_Energy> (1)
-387.655813487795

>  <r_j_Final_Energy> (1)
-387.655813487795

>  <r_j_HOMO> (1)
-0.262571605145775

>  <r_j_LUMO> (1)
0.0197295135499157

>  <r_j_Polarizability> (1)
84.6885299315274

>  <r_j_QM_Dipole_(debye)> (1)
0.455640429353297

>  <r_j_QM_Dipole_X_(debye)> (1)
0.165303585107144

>  <r_j_QM_Dipole_Y_(debye)> (1)
0.42459656255002

>  <r_j_QM_Dipole_Z_(debye)> (1)
0.000827455551237191

>  <r_j_Lowest_Frequency_(cm-1)> (1)
59.7849743988061

>  <r_j_Highest_Frequency_(cm-1)> (1)
3784.38879362285

>  <r_j_2nd_Lowest_Frequency_(cm-1)> (1)
94.8419330164451

>  <i_j_Num_Negative_Frequencies> (1)
0

>  <r_j_Zero_Point_Energy_(kcal/mol)> (1)
124.323303272621

>  <r_j_Entropy_(cal/mol/K)_298.15K_1.00E+00atm> (1)
96.8152667094087

>  <r_j_Enthalpy_(kcal/mol)_298.15K_1.00E+00atm> (1)
6.90329271313798

>  <r_j_Free_Energy_(kcal/mol)_298.15K_1.00E+00atm> (1)
-21.9621790562722

>  <r_j_Internal_Energy_(kcal/mol)_298.15K_1.00E+00atm> (1)
6.31080712431071

>  <r_j_Heat_Capacity_(cal/mol/K)_298.15K_1.00E+00atm> (1)
35.5042309464167

>  <r_j_ln(Q)_298.15K_1.00E+00atm> (1)
37.0678704603477

>  <r_j_Total_Internal_Energy_(au)_298.15K_1.00E+00atm> (1)
-387.447634780313

>  <r_j_Total_Enthalpy_(au)_298.15K_1.00E+00atm> (1)
-387.446690594421

>  <r_j_Total_Free_Energy_(au)_298.15K_1.00E+00atm> (1)
-387.492690652029

>  <r_lp_tautomer_probability> (1)
1

>  <r_epik_Ionization_Penalty> (1)
  0.0000

>  <r_epik_Ionization_Penalty_Charging> (1)
  0.0000

>  <r_epik_Ionization_Penalty_Neutral> (1)
  0.0000

>  <r_epik_State_Penalty> (1)
  0.0000

>  <r_epik_Charging_Adjusted_Penalty> (1)
0

>  <i_epik_Tot_Q> (1)
0

>  <i_epik_Tot_abs_Q> (1)
0

>  <s_lp_Force_Field> (1)
S-OPLS

>  <r_lp_Energy> (1)
4.666682

>  <b_lp_Chiralities_Consistent> (1)
1

$$$$
