8139_Methyl dodecanoate
                    3D
 Schrodinger Suite 2021-3.
 41 40  0  0  1  0            999 V2000
   -4.6537    4.6449   -0.2304 C   0  0  0  0  0  0
   -4.1498    3.2002   -0.1651 C   0  0  0  0  0  0
   -2.6213    3.0988   -0.0959 C   0  0  0  0  0  0
   -2.1100    1.6553   -0.0357 C   0  0  0  0  0  0
   -0.5824    1.5472    0.0309 C   0  0  0  0  0  0
   -0.0806    0.0995    0.0772 C   0  0  0  0  0  0
    1.4484   -0.0117    0.1466 C   0  0  0  0  0  0
    1.9820   -1.4514    0.0825 C   0  0  0  0  0  0
    1.5894   -2.3256    1.2799 C   0  0  0  0  0  0
    2.1509   -3.7490    1.1875 C   0  0  0  0  0  0
    1.7853   -4.6231    2.3976 C   0  0  0  0  0  0
    0.2940   -4.7807    2.6236 C   0  0  0  0  0  0
   -0.2670   -4.6988    3.6943 O   0  0  0  0  0  0
   -0.3574   -5.0484    1.4651 O   0  0  0  0  0  0
   -1.7799   -5.2161    1.5914 C   0  0  0  0  0  0
   -5.7467    4.6891   -0.2791 H   0  0  0  0  0  0
   -4.2592    5.1602   -1.1139 H   0  0  0  0  0  0
   -4.3357    5.2135    0.6512 H   0  0  0  0  0  0
   -4.5848    2.6975    0.7095 H   0  0  0  0  0  0
   -4.5087    2.6452   -1.0427 H   0  0  0  0  0  0
   -2.1843    3.6041   -0.9693 H   0  0  0  0  0  0
   -2.2602    3.6509    0.7838 H   0  0  0  0  0  0
   -2.5479    1.1511    0.8378 H   0  0  0  0  0  0
   -2.4740    1.1050   -0.9154 H   0  0  0  0  0  0
   -0.1429    2.0577   -0.8380 H   0  0  0  0  0  0
   -0.2171    2.0879    0.9157 H   0  0  0  0  0  0
   -0.5331   -0.4057    0.9404 H   0  0  0  0  0  0
   -0.4409   -0.4381   -0.8121 H   0  0  0  0  0  0
    1.8818    0.5635   -0.6826 H   0  0  0  0  0  0
    1.8061    0.4692    1.0684 H   0  0  0  0  0  0
    1.6259   -1.9275   -0.8425 H   0  0  0  0  0  0
    3.0776   -1.4246    0.0077 H   0  0  0  0  0  0
    1.9368   -1.8514    2.2090 H   0  0  0  0  0  0
    0.4966   -2.3828    1.3536 H   0  0  0  0  0  0
    1.7792   -4.2284    0.2752 H   0  0  0  0  0  0
    3.2443   -3.7114    1.1034 H   0  0  0  0  0  0
    2.2021   -5.6303    2.2696 H   0  0  0  0  0  0
    2.1974   -4.2155    3.3246 H   0  0  0  0  0  0
   -2.1470   -5.3998    0.5816 H   0  0  0  0  0  0
   -2.2377   -4.3159    2.0101 H   0  0  0  0  0  0
   -2.0122   -6.0609    2.2453 H   0  0  0  0  0  0
  1  2  1  0  0  0
  1 16  1  0  0  0
  1 17  1  0  0  0
  1 18  1  0  0  0
  2  3  1  0  0  0
  2 19  1  0  0  0
  2 20  1  0  0  0
  3  4  1  0  0  0
  3 21  1  0  0  0
  3 22  1  0  0  0
  4  5  1  0  0  0
  4 23  1  0  0  0
  4 24  1  0  0  0
  5  6  1  0  0  0
  5 25  1  0  0  0
  5 26  1  0  0  0
  6  7  1  0  0  0
  6 27  1  0  0  0
  6 28  1  0  0  0
  7  8  1  0  0  0
  7 29  1  0  0  0
  7 30  1  0  0  0
  8  9  1  0  0  0
  8 31  1  0  0  0
  8 32  1  0  0  0
  9 10  1  0  0  0
  9 33  1  0  0  0
  9 34  1  0  0  0
 10 11  1  0  0  0
 10 35  1  0  0  0
 10 36  1  0  0  0
 11 12  1  0  0  0
 11 37  1  0  0  0
 11 38  1  0  0  0
 12 13  2  0  0  0
 12 14  1  0  0  0
 14 15  1  0  0  0
 15 39  1  0  0  0
 15 40  1  0  0  0
 15 41  1  0  0  0
M  END
>  <i_m_Spin_multiplicity> (1)
1

>  <s_j_Task> (1)
Single Point

>  <s_j_QM_Method> (1)
DFT(b3lyp-d3)

>  <s_j_QM_Basis> (1)
cc-pvtz(-f)

>  <i_j_Number_of_canonical_orbitals> (1)
576

>  <i_j_Geometry_convergence_category> (1)
0

>  <r_j_Gas_Phase_Energy> (1)
-661.787766833841

>  <r_j_Final_Energy> (1)
-661.787766833841

>  <r_j_HOMO> (1)
-0.294848981415382

>  <r_j_LUMO> (1)
-0.0342308962630407

>  <r_j_Polarizability> (1)
164.439476307088

>  <r_j_QM_Dipole_(debye)> (1)
1.93657224130272

>  <r_j_QM_Dipole_X_(debye)> (1)
0.287148985403126

>  <r_j_QM_Dipole_Y_(debye)> (1)
-0.0898865475255483

>  <r_j_QM_Dipole_Z_(debye)> (1)
-1.91305460312562

>  <r_j_Lowest_Frequency_(cm-1)> (1)
32.7922721735682

>  <r_j_Highest_Frequency_(cm-1)> (1)
3107.9377835818

>  <r_j_2nd_Lowest_Frequency_(cm-1)> (1)
52.4525015208943

>  <i_j_Num_Negative_Frequencies> (1)
0

>  <r_j_Zero_Point_Energy_(kcal/mol)> (1)
235.302054433267

>  <r_j_Entropy_(cal/mol/K)_298.15K_1.00E+00atm> (1)
133.09783236921

>  <r_j_Enthalpy_(kcal/mol)_298.15K_1.00E+00atm> (1)
11.6610918613486

>  <r_j_Free_Energy_(kcal/mol)_298.15K_1.00E+00atm> (1)
-28.0220268595313

>  <r_j_Internal_Energy_(kcal/mol)_298.15K_1.00E+00atm> (1)
11.0686062725214

>  <r_j_Heat_Capacity_(cal/mol/K)_298.15K_1.00E+00atm> (1)
66.309147898271

>  <r_j_ln(Q)_298.15K_1.00E+00atm> (1)
47.2957104576943

>  <r_j_Total_Internal_Energy_(au)_298.15K_1.00E+00atm> (1)
-661.395150192205

>  <r_j_Total_Enthalpy_(au)_298.15K_1.00E+00atm> (1)
-661.394206006313

>  <r_j_Total_Free_Energy_(au)_298.15K_1.00E+00atm> (1)
-661.457445081766

>  <r_lp_tautomer_probability> (1)
1

>  <r_epik_Ionization_Penalty> (1)
  0.0000

>  <r_epik_Ionization_Penalty_Charging> (1)
  0.0000

>  <r_epik_Ionization_Penalty_Neutral> (1)
  0.0000

>  <r_epik_State_Penalty> (1)
  0.0000

>  <r_epik_Charging_Adjusted_Penalty> (1)
0

>  <i_epik_Tot_Q> (1)
0

>  <i_epik_Tot_abs_Q> (1)
0

>  <s_lp_Force_Field> (1)
S-OPLS

>  <r_lp_Energy> (1)
5.776672

>  <b_lp_Chiralities_Consistent> (1)
1

>  <s_epik_Chemistry_Notes> (1)
This compound has an ester and may undergo hydrolysis at high or low pH.

$$$$
