8141_N-nonane
                    3D
 Schrodinger Suite 2021-3.
 29 28  0  0  1  0            999 V2000
   -2.6935    2.9438    0.0002 C   0  0  0  0  0  0
   -2.1341    1.5181    0.0000 C   0  0  0  0  0  0
   -0.6011    1.4729    0.0000 C   0  0  0  0  0  0
   -0.0344    0.0484   -0.0001 C   0  0  0  0  0  0
    1.4980   -0.0028   -0.0001 C   0  0  0  0  0  0
    2.0571   -1.4305   -0.0001 C   0  0  0  0  0  0
    3.5890   -1.4900    0.0000 C   0  0  0  0  0  0
    4.1426   -2.9203    0.0001 C   0  0  0  0  0  0
    5.6733   -2.9724    0.0001 C   0  0  0  0  0  0
   -3.7887    2.9474    0.0002 H   0  0  0  0  0  0
   -2.3576    3.4984   -0.8838 H   0  0  0  0  0  0
   -2.3575    3.4982    0.8842 H   0  0  0  0  0  0
   -2.5114    0.9752    0.8776 H   0  0  0  0  0  0
   -2.5114    0.9753   -0.8777 H   0  0  0  0  0  0
   -0.2219    2.0157   -0.8781 H   0  0  0  0  0  0
   -0.2219    2.0156    0.8781 H   0  0  0  0  0  0
   -0.4151   -0.4932    0.8778 H   0  0  0  0  0  0
   -0.4151   -0.4931   -0.8781 H   0  0  0  0  0  0
    1.8801    0.5374   -0.8783 H   0  0  0  0  0  0
    1.8800    0.5374    0.8781 H   0  0  0  0  0  0
    1.6734   -1.9699    0.8779 H   0  0  0  0  0  0
    1.6734   -1.9700   -0.8781 H   0  0  0  0  0  0
    3.9744   -0.9516   -0.8782 H   0  0  0  0  0  0
    3.9743   -0.9515    0.8780 H   0  0  0  0  0  0
    3.7566   -3.4568    0.8778 H   0  0  0  0  0  0
    3.7566   -3.4570   -0.8775 H   0  0  0  0  0  0
    6.0418   -4.0037    0.0002 H   0  0  0  0  0  0
    6.0841   -2.4707    0.8840 H   0  0  0  0  0  0
    6.0841   -2.4709   -0.8840 H   0  0  0  0  0  0
  1  2  1  0  0  0
  1 10  1  0  0  0
  1 11  1  0  0  0
  1 12  1  0  0  0
  2  3  1  0  0  0
  2 13  1  0  0  0
  2 14  1  0  0  0
  3  4  1  0  0  0
  3 15  1  0  0  0
  3 16  1  0  0  0
  4  5  1  0  0  0
  4 17  1  0  0  0
  4 18  1  0  0  0
  5  6  1  0  0  0
  5 19  1  0  0  0
  5 20  1  0  0  0
  6  7  1  0  0  0
  6 21  1  0  0  0
  6 22  1  0  0  0
  7  8  1  0  0  0
  7 23  1  0  0  0
  7 24  1  0  0  0
  8  9  1  0  0  0
  8 25  1  0  0  0
  8 26  1  0  0  0
  9 27  1  0  0  0
  9 28  1  0  0  0
  9 29  1  0  0  0
M  END
>  <i_m_Spin_multiplicity> (1)
1

>  <s_j_Task> (1)
Single Point

>  <s_j_QM_Method> (1)
DFT(b3lyp-d3)

>  <s_j_QM_Basis> (1)
cc-pvtz(-f)

>  <i_j_Number_of_canonical_orbitals> (1)
384

>  <i_j_Geometry_convergence_category> (1)
0

>  <r_j_Gas_Phase_Energy> (1)
-355.170599969528

>  <r_j_Final_Energy> (1)
-355.170599969528

>  <r_j_HOMO> (1)
-0.300881059895512

>  <r_j_LUMO> (1)
0.0232556468590661

>  <r_j_Polarizability> (1)
113.374755464035

>  <r_j_QM_Dipole_(debye)> (1)
0.0833445068461519

>  <r_j_QM_Dipole_X_(debye)> (1)
-0.0481901257852121

>  <r_j_QM_Dipole_Y_(debye)> (1)
-0.0679997134309946

>  <r_j_QM_Dipole_Z_(debye)> (1)
0.000239940693309015

>  <r_j_Lowest_Frequency_(cm-1)> (1)
65.1098338851294

>  <r_j_Highest_Frequency_(cm-1)> (1)
3044.68305086925

>  <r_j_2nd_Lowest_Frequency_(cm-1)> (1)
79.0397147715524

>  <i_j_Num_Negative_Frequencies> (1)
0

>  <r_j_Zero_Point_Energy_(kcal/mol)> (1)
171.896637521473

>  <r_j_Entropy_(cal/mol/K)_298.15K_1.00E+00atm> (1)
103.491654929683

>  <r_j_Enthalpy_(kcal/mol)_298.15K_1.00E+00atm> (1)
7.85671196086411

>  <r_j_Free_Energy_(kcal/mol)_298.15K_1.00E+00atm> (1)
-22.999324956421

>  <r_j_Internal_Energy_(kcal/mol)_298.15K_1.00E+00atm> (1)
7.26422637203683

>  <r_j_Heat_Capacity_(cal/mol/K)_298.15K_1.00E+00atm> (1)
42.9117077081591

>  <r_j_ln(Q)_298.15K_1.00E+00atm> (1)
38.8183702525901

>  <r_j_Total_Internal_Energy_(au)_298.15K_1.00E+00atm> (1)
-354.88508895741

>  <r_j_Total_Enthalpy_(au)_298.15K_1.00E+00atm> (1)
-354.884144771517

>  <r_j_Total_Free_Energy_(au)_298.15K_1.00E+00atm> (1)
-354.933316996627

>  <r_lp_tautomer_probability> (1)
1

>  <r_epik_Ionization_Penalty> (1)
  0.0000

>  <r_epik_Ionization_Penalty_Charging> (1)
  0.0000

>  <r_epik_Ionization_Penalty_Neutral> (1)
  0.0000

>  <r_epik_State_Penalty> (1)
  0.0000

>  <r_epik_Charging_Adjusted_Penalty> (1)
0

>  <i_epik_Tot_Q> (1)
0

>  <i_epik_Tot_abs_Q> (1)
0

>  <s_lp_Force_Field> (1)
S-OPLS

>  <r_lp_Energy> (1)
3.50643

>  <b_lp_Chiralities_Consistent> (1)
1

$$$$
