8164_N-Octyl Acetate
                    3D
 Schrodinger Suite 2021-3.
 32 31  0  0  1  0            999 V2000
   -4.2170    2.8718   -0.0032 C   0  0  0  0  0  0
   -2.6856    2.8792   -0.0022 C   0  0  0  0  0  0
   -2.0791    1.4712    0.0013 C   0  0  0  0  0  0
   -0.5465    1.4686    0.0014 C   0  0  0  0  0  0
    0.0592    0.0611    0.0037 C   0  0  0  0  0  0
    1.5921    0.0610    0.0027 C   0  0  0  0  0  0
    2.1890   -1.3508    0.0033 C   0  0  0  0  0  0
    3.7078   -1.3296    0.0022 C   0  0  0  0  0  0
    4.1621   -2.7023    0.0007 O   0  0  0  0  0  0
    5.5020   -2.8765   -0.0021 C   0  0  0  0  0  0
    6.2995   -1.9632   -0.0031 O   0  0  0  0  0  0
    5.8734   -4.3419   -0.0038 C   0  0  0  0  0  0
   -4.6250    3.8878   -0.0060 H   0  0  0  0  0  0
   -4.6090    2.3570    0.8816 H   0  0  0  0  0  0
   -4.6079    2.3526   -0.8860 H   0  0  0  0  0  0
   -2.3192    3.4279   -0.8807 H   0  0  0  0  0  0
   -2.3202    3.4318    0.8742 H   0  0  0  0  0  0
   -2.4445    0.9207    0.8804 H   0  0  0  0  0  0
   -2.4443    0.9167   -0.8752 H   0  0  0  0  0  0
   -0.1820    2.0195   -0.8774 H   0  0  0  0  0  0
   -0.1819    2.0226    0.8784 H   0  0  0  0  0  0
   -0.3032   -0.4906    0.8827 H   0  0  0  0  0  0
   -0.3041   -0.4936   -0.8731 H   0  0  0  0  0  0
    1.9546    0.6126   -0.8762 H   0  0  0  0  0  0
    1.9558    0.6141    0.8802 H   0  0  0  0  0  0
    1.8411   -1.9056    0.8835 H   0  0  0  0  0  0
    1.8402   -1.9068   -0.8758 H   0  0  0  0  0  0
    4.1105   -0.8186   -0.8796 H   0  0  0  0  0  0
    4.1118   -0.8200    0.8843 H   0  0  0  0  0  0
    4.9951   -4.9876   -0.0020 H   0  0  0  0  0  0
    6.4898   -4.5486    0.8754 H   0  0  0  0  0  0
    6.4853   -4.5476   -0.8864 H   0  0  0  0  0  0
  1  2  1  0  0  0
  1 13  1  0  0  0
  1 14  1  0  0  0
  1 15  1  0  0  0
  2  3  1  0  0  0
  2 16  1  0  0  0
  2 17  1  0  0  0
  3  4  1  0  0  0
  3 18  1  0  0  0
  3 19  1  0  0  0
  4  5  1  0  0  0
  4 20  1  0  0  0
  4 21  1  0  0  0
  5  6  1  0  0  0
  5 22  1  0  0  0
  5 23  1  0  0  0
  6  7  1  0  0  0
  6 24  1  0  0  0
  6 25  1  0  0  0
  7  8  1  0  0  0
  7 26  1  0  0  0
  7 27  1  0  0  0
  8  9  1  0  0  0
  8 28  1  0  0  0
  8 29  1  0  0  0
  9 10  1  0  0  0
 10 11  2  0  0  0
 10 12  1  0  0  0
 12 30  1  0  0  0
 12 31  1  0  0  0
 12 32  1  0  0  0
M  END
>  <i_m_Spin_multiplicity> (1)
1

>  <s_j_Task> (1)
Single Point

>  <s_j_QM_Method> (1)
DFT(b3lyp-d3)

>  <s_j_QM_Basis> (1)
cc-pvtz(-f)

>  <i_j_Number_of_canonical_orbitals> (1)
454

>  <i_j_Geometry_convergence_category> (1)
0

>  <r_j_Gas_Phase_Energy> (1)
-543.804262854346

>  <r_j_Final_Energy> (1)
-543.804262854346

>  <r_j_HOMO> (1)
-0.289459011990763

>  <r_j_LUMO> (1)
-0.0106072214981162

>  <r_j_Polarizability> (1)
130.729508219289

>  <r_j_QM_Dipole_(debye)> (1)
2.05463503280156

>  <r_j_QM_Dipole_X_(debye)> (1)
-1.92586388080749

>  <r_j_QM_Dipole_Y_(debye)> (1)
-0.715939420080447

>  <r_j_QM_Dipole_Z_(debye)> (1)
0.00204386679037836

>  <r_j_Lowest_Frequency_(cm-1)> (1)
40.2984528401563

>  <r_j_Highest_Frequency_(cm-1)> (1)
3110.02496316486

>  <r_j_2nd_Lowest_Frequency_(cm-1)> (1)
57.6806916680471

>  <i_j_Num_Negative_Frequencies> (1)
0

>  <r_j_Zero_Point_Energy_(kcal/mol)> (1)
181.153552067578

>  <r_j_Entropy_(cal/mol/K)_298.15K_1.00E+00atm> (1)
117.612995790639

>  <r_j_Enthalpy_(kcal/mol)_298.15K_1.00E+00atm> (1)
9.57976608191886

>  <r_j_Free_Energy_(kcal/mol)_298.15K_1.00E+00atm> (1)
-25.4865486130603

>  <r_j_Internal_Energy_(kcal/mol)_298.15K_1.00E+00atm> (1)
8.98728049309159

>  <r_j_Heat_Capacity_(cal/mol/K)_298.15K_1.00E+00atm> (1)
52.4649092193165

>  <r_j_ln(Q)_298.15K_1.00E+00atm> (1)
43.0163181918173

>  <r_j_Total_Internal_Energy_(au)_298.15K_1.00E+00atm> (1)
-543.501254148262

>  <r_j_Total_Enthalpy_(au)_298.15K_1.00E+00atm> (1)
-543.500309962369

>  <r_j_Total_Free_Energy_(au)_298.15K_1.00E+00atm> (1)
-543.556191692242

>  <r_lp_tautomer_probability> (1)
1

>  <r_epik_Ionization_Penalty> (1)
  0.0000

>  <r_epik_Ionization_Penalty_Charging> (1)
  0.0000

>  <r_epik_Ionization_Penalty_Neutral> (1)
  0.0000

>  <r_epik_State_Penalty> (1)
  0.0000

>  <r_epik_Charging_Adjusted_Penalty> (1)
0

>  <i_epik_Tot_Q> (1)
0

>  <i_epik_Tot_abs_Q> (1)
0

>  <s_lp_Force_Field> (1)
S-OPLS

>  <r_lp_Energy> (1)
2.937213

>  <b_lp_Chiralities_Consistent> (1)
1

>  <s_epik_Chemistry_Notes> (1)
This compound has an ester and may undergo hydrolysis at high or low pH.

$$$$
