8172_Triethylene glycol
                    3D
 Schrodinger Suite 2021-3.
 24 23  0  0  1  0            999 V2000
   -2.2531    2.8724   -0.0934 C   0  0  0  0  0  0
   -1.8951    1.3895   -0.0509 C   0  0  0  0  0  0
   -0.4864    1.2842   -0.0004 O   0  0  0  0  0  0
   -0.0206   -0.0527    0.0133 C   0  0  0  0  0  0
    1.4984   -0.0050    0.0474 C   0  0  0  0  0  0
    1.9595   -1.3407    0.0667 O   0  0  0  0  0  0
    3.3703   -1.4437    0.0835 C   0  0  0  0  0  0
    3.7603   -2.9050   -0.0060 C   0  0  0  0  0  0
    3.4981   -3.3606   -1.3257 O   0  0  0  0  0  0
   -3.6589    3.0684   -0.1621 O   0  0  0  0  0  0
   -1.7983    3.3801    0.7706 H   0  0  0  0  0  0
   -1.8294    3.3206   -0.9966 H   0  0  0  0  0  0
   -2.3571    0.9166    0.8358 H   0  0  0  0  0  0
   -2.3068    0.8858   -0.9401 H   0  0  0  0  0  0
   -0.3936   -0.5979    0.8954 H   0  0  0  0  0  0
   -0.3517   -0.6027   -0.8815 H   0  0  0  0  0  0
    1.8696    0.5369   -0.8373 H   0  0  0  0  0  0
    1.8306    0.5515    0.9397 H   0  0  0  0  0  0
    3.8155   -0.9006   -0.7660 H   0  0  0  0  0  0
    3.7820   -1.0117    1.0124 H   0  0  0  0  0  0
    4.8292   -2.9955    0.2515 H   0  0  0  0  0  0
    3.1831   -3.4646    0.7461 H   0  0  0  0  0  0
    3.6044   -4.3195   -1.3392 H   0  0  0  0  0  0
   -4.0372    2.7937    0.6835 H   0  0  0  0  0  0
  1  2  1  0  0  0
  1 10  1  0  0  0
  1 11  1  0  0  0
  1 12  1  0  0  0
  2  3  1  0  0  0
  2 13  1  0  0  0
  2 14  1  0  0  0
  3  4  1  0  0  0
  4  5  1  0  0  0
  4 15  1  0  0  0
  4 16  1  0  0  0
  5  6  1  0  0  0
  5 17  1  0  0  0
  5 18  1  0  0  0
  6  7  1  0  0  0
  7  8  1  0  0  0
  7 19  1  0  0  0
  7 20  1  0  0  0
  8  9  1  0  0  0
  8 21  1  0  0  0
  8 22  1  0  0  0
  9 23  1  0  0  0
 10 24  1  0  0  0
M  END
>  <i_m_Spin_multiplicity> (1)
1

>  <s_j_Task> (1)
Single Point

>  <s_j_QM_Method> (1)
DFT(b3lyp-d3)

>  <s_j_QM_Basis> (1)
cc-pvtz(-f)

>  <i_j_Number_of_canonical_orbitals> (1)
356

>  <i_j_Geometry_convergence_category> (1)
3

>  <r_j_Gas_Phase_Energy> (1)
-538.127013311684

>  <r_j_Final_Energy> (1)
-538.127013311684

>  <r_j_HOMO> (1)
-0.261487140560269

>  <r_j_LUMO> (1)
0.0115959060941259

>  <r_j_Polarizability> (1)
93.5660794449656

>  <r_j_QM_Dipole_(debye)> (1)
3.01610805061697

>  <r_j_QM_Dipole_X_(debye)> (1)
1.17250776049501

>  <r_j_QM_Dipole_Y_(debye)> (1)
-1.67344425770951

>  <r_j_QM_Dipole_Z_(debye)> (1)
2.21849445365872

>  <r_j_Lowest_Frequency_(cm-1)> (1)
44.7628710794907

>  <r_j_Highest_Frequency_(cm-1)> (1)
3781.34954716016

>  <r_j_2nd_Lowest_Frequency_(cm-1)> (1)
70.531669715735

>  <i_j_Num_Negative_Frequencies> (1)
0

>  <r_j_Zero_Point_Energy_(kcal/mol)> (1)
130.279736387107

>  <r_j_Entropy_(cal/mol/K)_298.15K_1.00E+00atm> (1)
107.614066761134

>  <r_j_Enthalpy_(kcal/mol)_298.15K_1.00E+00atm> (1)
8.1543403325387

>  <r_j_Free_Energy_(kcal/mol)_298.15K_1.00E+00atm> (1)
-23.9307936722933

>  <r_j_Internal_Energy_(kcal/mol)_298.15K_1.00E+00atm> (1)
7.56185474371143

>  <r_j_Heat_Capacity_(cal/mol/K)_298.15K_1.00E+00atm> (1)
42.2262314076826

>  <r_j_ln(Q)_298.15K_1.00E+00atm> (1)
40.3905075896618

>  <r_j_Total_Internal_Energy_(au)_298.15K_1.00E+00atm> (1)
-537.907348752469

>  <r_j_Total_Enthalpy_(au)_298.15K_1.00E+00atm> (1)
-537.906404566577

>  <r_j_Total_Free_Energy_(au)_298.15K_1.00E+00atm> (1)
-537.957535482585

>  <r_lp_tautomer_probability> (1)
1

>  <r_epik_Ionization_Penalty> (1)
  0.0000

>  <r_epik_Ionization_Penalty_Charging> (1)
  0.0000

>  <r_epik_Ionization_Penalty_Neutral> (1)
  0.0000

>  <r_epik_State_Penalty> (1)
  0.0000

>  <r_epik_Charging_Adjusted_Penalty> (1)
0

>  <i_epik_Tot_Q> (1)
0

>  <i_epik_Tot_abs_Q> (1)
0

>  <s_lp_Force_Field> (1)
S-OPLS

>  <r_lp_Energy> (1)
11.596402

>  <b_lp_Chiralities_Consistent> (1)
1

$$$$
