8175_Decanal
                    3D
 Schrodinger Suite 2021-3.
 31 30  0  0  1  0            999 V2000
   -4.1859    3.0258   -0.0474 C   0  0  0  0  0  0
   -2.6569    2.9523   -0.0015 C   0  0  0  0  0  0
   -2.1222    1.5155   -0.0312 C   0  0  0  0  0  0
   -0.5921    1.4380    0.0082 C   0  0  0  0  0  0
   -0.0481    0.0052   -0.0194 C   0  0  0  0  0  0
    1.4832   -0.0572    0.0078 C   0  0  0  0  0  0
    2.0378   -1.4852   -0.0140 C   0  0  0  0  0  0
    3.5711   -1.5312   -0.0046 C   0  0  0  0  0  0
    4.1356   -2.9644   -0.0222 C   0  0  0  0  0  0
    3.8146   -3.7086    1.2540 C   0  0  0  0  0  0
    3.2468   -4.7765    1.3144 O   0  0  0  0  0  0
   -4.5402    4.0617   -0.0243 H   0  0  0  0  0  0
   -4.6315    2.5015    0.8059 H   0  0  0  0  0  0
   -4.5755    2.5601   -0.9599 H   0  0  0  0  0  0
   -2.2361    3.5112   -0.8486 H   0  0  0  0  0  0
   -2.2910    3.4547    0.9044 H   0  0  0  0  0  0
   -2.5384    0.9552    0.8184 H   0  0  0  0  0  0
   -2.4897    1.0097   -0.9357 H   0  0  0  0  0  0
   -0.1791    1.9987   -0.8426 H   0  0  0  0  0  0
   -0.2261    1.9471    0.9115 H   0  0  0  0  0  0
   -0.4512   -0.5552    0.8361 H   0  0  0  0  0  0
   -0.4172   -0.5082   -0.9187 H   0  0  0  0  0  0
    1.8841    0.5009   -0.8506 H   0  0  0  0  0  0
    1.8519    0.4615    0.9044 H   0  0  0  0  0  0
    1.6449   -2.0427    0.8479 H   0  0  0  0  0  0
    1.6669   -2.0118   -0.9043 H   0  0  0  0  0  0
    3.9611   -0.9856   -0.8722 H   0  0  0  0  0  0
    3.9495   -1.0028    0.8820 H   0  0  0  0  0  0
    3.7475   -3.5419   -0.8672 H   0  0  0  0  0  0
    5.2312   -2.9236   -0.1093 H   0  0  0  0  0  0
    4.1419   -3.1839    2.1845 H   0  0  0  0  0  0
  1  2  1  0  0  0
  1 12  1  0  0  0
  1 13  1  0  0  0
  1 14  1  0  0  0
  2  3  1  0  0  0
  2 15  1  0  0  0
  2 16  1  0  0  0
  3  4  1  0  0  0
  3 17  1  0  0  0
  3 18  1  0  0  0
  4  5  1  0  0  0
  4 19  1  0  0  0
  4 20  1  0  0  0
  5  6  1  0  0  0
  5 21  1  0  0  0
  5 22  1  0  0  0
  6  7  1  0  0  0
  6 23  1  0  0  0
  6 24  1  0  0  0
  7  8  1  0  0  0
  7 25  1  0  0  0
  7 26  1  0  0  0
  8  9  1  0  0  0
  8 27  1  0  0  0
  8 28  1  0  0  0
  9 10  1  0  0  0
  9 29  1  0  0  0
  9 30  1  0  0  0
 10 11  2  0  0  0
 10 31  1  0  0  0
M  END
>  <i_m_Spin_multiplicity> (1)
1

>  <s_j_Task> (1)
Single Point

>  <s_j_QM_Method> (1)
DFT(b3lyp-d3)

>  <s_j_QM_Basis> (1)
cc-pvtz(-f)

>  <i_j_Number_of_canonical_orbitals> (1)
431

>  <i_j_Geometry_convergence_category> (1)
3

>  <r_j_Gas_Phase_Energy> (1)
-468.526683316888

>  <r_j_Final_Energy> (1)
-468.526683316888

>  <r_j_HOMO> (1)
-0.282871441832221

>  <r_j_LUMO> (1)
-0.0569662042596659

>  <r_j_Polarizability> (1)
125.579413156173

>  <r_j_QM_Dipole_(debye)> (1)
2.89914066353

>  <r_j_QM_Dipole_X_(debye)> (1)
0.929357939174998

>  <r_j_QM_Dipole_Y_(debye)> (1)
2.64868200378724

>  <r_j_QM_Dipole_Z_(debye)> (1)
-0.725116577275131

>  <r_j_Lowest_Frequency_(cm-1)> (1)
53.1495672362907

>  <r_j_Highest_Frequency_(cm-1)> (1)
3046.87232519607

>  <r_j_2nd_Lowest_Frequency_(cm-1)> (1)
75.8836289820957

>  <i_j_Num_Negative_Frequencies> (1)
0

>  <r_j_Zero_Point_Energy_(kcal/mol)> (1)
177.93456343912

>  <r_j_Entropy_(cal/mol/K)_298.15K_1.00E+00atm> (1)
112.667010720066

>  <r_j_Enthalpy_(kcal/mol)_298.15K_1.00E+00atm> (1)
8.88005051706584

>  <r_j_Free_Energy_(kcal/mol)_298.15K_1.00E+00atm> (1)
-24.7116187291217

>  <r_j_Internal_Energy_(kcal/mol)_298.15K_1.00E+00atm> (1)
8.28756492823856

>  <r_j_Heat_Capacity_(cal/mol/K)_298.15K_1.00E+00atm> (1)
48.7540817429784

>  <r_j_ln(Q)_298.15K_1.00E+00atm> (1)
41.7083878411865

>  <r_j_Total_Internal_Energy_(au)_298.15K_1.00E+00atm> (1)
-468.22991946348

>  <r_j_Total_Enthalpy_(au)_298.15K_1.00E+00atm> (1)
-468.228975277588

>  <r_j_Total_Free_Energy_(au)_298.15K_1.00E+00atm> (1)
-468.282507010338

>  <r_lp_tautomer_probability> (1)
1

>  <r_epik_Ionization_Penalty> (1)
  0.0000

>  <r_epik_Ionization_Penalty_Charging> (1)
  0.0000

>  <r_epik_Ionization_Penalty_Neutral> (1)
  0.0000

>  <r_epik_State_Penalty> (1)
  0.0000

>  <r_epik_Charging_Adjusted_Penalty> (1)
0

>  <i_epik_Tot_Q> (1)
0

>  <i_epik_Tot_abs_Q> (1)
0

>  <s_lp_Force_Field> (1)
S-OPLS

>  <r_lp_Energy> (1)
3.678297

>  <b_lp_Chiralities_Consistent> (1)
1

$$$$
