8180_Undecanoic acid
                    3D
 Schrodinger Suite 2021-3.
 34 33  0  0  1  0            999 V2000
   -0.3892    4.6368   -2.4790 C   0  0  0  0  0  0
   -0.7400    3.7643   -1.2698 C   0  0  0  0  0  0
   -0.1264    2.3610   -1.3418 C   0  0  0  0  0  0
   -0.4714    1.4870   -0.1291 C   0  0  0  0  0  0
    0.0753    0.0526   -0.2003 C   0  0  0  0  0  0
    1.6065   -0.0510   -0.1964 C   0  0  0  0  0  0
    2.1218   -1.4942   -0.1403 C   0  0  0  0  0  0
    3.6517   -1.6058   -0.1428 C   0  0  0  0  0  0
    4.1656   -3.0467   -0.0439 C   0  0  0  0  0  0
    5.6880   -3.1808   -0.0258 C   0  0  0  0  0  0
    6.1964   -4.6333    0.3346 C   0  0  0  0  0  0
    7.3410   -4.9128   -0.0958 O   0  0  0  0  0  0
    5.4091   -5.3210    1.0365 O   0  5  0  0  0  0
   -0.8375    5.6338   -2.4041 H   0  0  0  0  0  0
   -0.7444    4.1797   -3.4101 H   0  0  0  0  0  0
    0.6957    4.7641   -2.5700 H   0  0  0  0  0  0
   -0.4003    4.2592   -0.3493 H   0  0  0  0  0  0
   -1.8322    3.6792   -1.1817 H   0  0  0  0  0  0
   -0.4697    1.8602   -2.2592 H   0  0  0  0  0  0
    0.9631    2.4522   -1.4373 H   0  0  0  0  0  0
   -0.0914    1.9726    0.7818 H   0  0  0  0  0  0
   -1.5652    1.4523   -0.0204 H   0  0  0  0  0  0
   -0.3175   -0.5171    0.6529 H   0  0  0  0  0  0
   -0.3196   -0.4422   -1.0998 H   0  0  0  0  0  0
    2.0176    0.4393   -1.0894 H   0  0  0  0  0  0
    2.0025    0.5088    0.6642 H   0  0  0  0  0  0
    1.7266   -1.9862    0.7603 H   0  0  0  0  0  0
    1.7147   -2.0584   -0.9926 H   0  0  0  0  0  0
    4.0450   -1.1285   -1.0541 H   0  0  0  0  0  0
    4.0546   -1.0190    0.6973 H   0  0  0  0  0  0
    3.7904   -3.5324    0.8648 H   0  0  0  0  0  0
    3.7570   -3.6343   -0.8800 H   0  0  0  0  0  0
    6.1305   -2.8781   -0.9841 H   0  0  0  0  0  0
    6.1020   -2.4943    0.7315 H   0  0  0  0  0  0
  1  2  1  0  0  0
  1 14  1  0  0  0
  1 15  1  0  0  0
  1 16  1  0  0  0
  2  3  1  0  0  0
  2 17  1  0  0  0
  2 18  1  0  0  0
  3  4  1  0  0  0
  3 19  1  0  0  0
  3 20  1  0  0  0
  4  5  1  0  0  0
  4 21  1  0  0  0
  4 22  1  0  0  0
  5  6  1  0  0  0
  5 23  1  0  0  0
  5 24  1  0  0  0
  6  7  1  0  0  0
  6 25  1  0  0  0
  6 26  1  0  0  0
  7  8  1  0  0  0
  7 27  1  0  0  0
  7 28  1  0  0  0
  8  9  1  0  0  0
  8 29  1  0  0  0
  8 30  1  0  0  0
  9 10  1  0  0  0
  9 31  1  0  0  0
  9 32  1  0  0  0
 10 11  1  0  0  0
 10 33  1  0  0  0
 10 34  1  0  0  0
 11 12  2  0  0  0
 11 13  1  0  0  0
M  END
>  <i_m_Spin_multiplicity> (1)
1

>  <s_j_Task> (1)
Single Point

>  <s_j_QM_Method> (1)
DFT(b3lyp-d3)

>  <s_j_QM_Basis> (1)
cc-pvtz(-f)

>  <i_j_Number_of_canonical_orbitals> (1)
485

>  <i_j_Geometry_convergence_category> (1)
1

>  <r_j_Gas_Phase_Energy> (1)
-582.571558433822

>  <r_j_Final_Energy> (1)
-582.571558433822

>  <r_j_HOMO> (1)
-0.0538772474209832

>  <r_j_LUMO> (1)
0.111664782312454

>  <r_j_Polarizability> (1)
146.667215594096

>  <r_j_QM_Dipole_(debye)> (1)
24.328409180784

>  <r_j_QM_Dipole_X_(debye)> (1)
-15.9479907208982

>  <r_j_QM_Dipole_Y_(debye)> (1)
18.0375952167229

>  <r_j_QM_Dipole_Z_(debye)> (1)
-3.48973409179769

>  <r_j_Lowest_Frequency_(cm-1)> (1)
43.3090780394291

>  <r_j_Highest_Frequency_(cm-1)> (1)
3039.27071712479

>  <r_j_2nd_Lowest_Frequency_(cm-1)> (1)
56.0903676893203

>  <i_j_Num_Negative_Frequencies> (1)
0

>  <r_j_Zero_Point_Energy_(kcal/mol)> (1)
190.832671046597

>  <r_j_Entropy_(cal/mol/K)_298.15K_1.00E+00atm> (1)
121.51349983341

>  <r_j_Enthalpy_(kcal/mol)_298.15K_1.00E+00atm> (1)
9.98647261536665

>  <r_j_Free_Energy_(kcal/mol)_298.15K_1.00E+00atm> (1)
-26.2427773599646

>  <r_j_Internal_Energy_(kcal/mol)_298.15K_1.00E+00atm> (1)
9.39398702653938

>  <r_j_Heat_Capacity_(cal/mol/K)_298.15K_1.00E+00atm> (1)
55.6056824206011

>  <r_j_ln(Q)_298.15K_1.00E+00atm> (1)
44.2926846742514

>  <r_j_Total_Internal_Energy_(au)_298.15K_1.00E+00atm> (1)
-582.252476941597

>  <r_j_Total_Enthalpy_(au)_298.15K_1.00E+00atm> (1)
-582.251532755705

>  <r_j_Total_Free_Energy_(au)_298.15K_1.00E+00atm> (1)
-582.309267740924

>  <r_epik_Ionization_Penalty> (1)
  0.0049

>  <r_epik_Ionization_Penalty_Charging> (1)
  0.0049

>  <r_epik_Ionization_Penalty_Neutral> (1)
  0.0000

>  <r_epik_State_Penalty> (1)
  0.0035

>  <r_epik_Charging_Adjusted_Penalty> (1)
0.00839777765143097

>  <i_epik_Tot_Q> (1)
-1

>  <i_epik_Tot_abs_Q> (1)
1

>  <s_lp_Force_Field> (1)
S-OPLS

>  <r_lp_Energy> (1)
8.439388

>  <b_lp_Chiralities_Consistent> (1)
1

$$$$
