8193_1-Dodecanol
                    3D
 Schrodinger Suite 2021-3.
 39 38  0  0  1  0            999 V2000
   -4.7824    4.4064   -0.0413 C   0  0  0  0  0  0
   -4.2108    2.9867    0.0174 C   0  0  0  0  0  0
   -2.6786    2.9529   -0.0289 C   0  0  0  0  0  0
   -2.1003    1.5347    0.0275 C   0  0  0  0  0  0
   -0.5685    1.4941   -0.0152 C   0  0  0  0  0  0
    0.0005    0.0718    0.0378 C   0  0  0  0  0  0
    1.5320    0.0217    0.0011 C   0  0  0  0  0  0
    2.0917   -1.4045    0.0487 C   0  0  0  0  0  0
    3.6229   -1.4624    0.0209 C   0  0  0  0  0  0
    4.1758   -2.8914    0.0590 C   0  0  0  0  0  0
    5.7073   -2.9551    0.0564 C   0  0  0  0  0  0
    6.2567   -4.3838    0.0425 C   0  0  0  0  0  0
    5.8969   -5.1345    1.1993 O   0  0  0  0  0  0
   -5.8769    4.4021   -0.0060 H   0  0  0  0  0  0
   -4.4802    4.9150   -0.9640 H   0  0  0  0  0  0
   -4.4238    5.0106    0.8000 H   0  0  0  0  0  0
   -4.5551    2.4888    0.9342 H   0  0  0  0  0  0
   -4.6102    2.3943   -0.8171 H   0  0  0  0  0  0
   -2.3319    3.4519   -0.9454 H   0  0  0  0  0  0
   -2.2771    3.5440    0.8069 H   0  0  0  0  0  0
   -2.4506    1.0361    0.9427 H   0  0  0  0  0  0
   -2.5021    0.9456   -0.8095 H   0  0  0  0  0  0
   -0.2161    1.9933   -0.9292 H   0  0  0  0  0  0
   -0.1652    2.0792    0.8236 H   0  0  0  0  0  0
   -0.3567   -0.4280    0.9496 H   0  0  0  0  0  0
   -0.4018   -0.5112   -0.8031 H   0  0  0  0  0  0
    1.8915    0.5235   -0.9086 H   0  0  0  0  0  0
    1.9356    0.5995    0.8449 H   0  0  0  0  0  0
    1.7264   -1.9076    0.9555 H   0  0  0  0  0  0
    1.6907   -1.9798   -0.7982 H   0  0  0  0  0  0
    3.9916   -0.9553   -0.8821 H   0  0  0  0  0  0
    4.0251   -0.8957    0.8724 H   0  0  0  0  0  0
    3.7935   -3.3934    0.9592 H   0  0  0  0  0  0
    3.7845   -3.4550   -0.8014 H   0  0  0  0  0  0
    6.0965   -2.4236   -0.8232 H   0  0  0  0  0  0
    6.0980   -2.4371    0.9414 H   0  0  0  0  0  0
    5.9346   -4.8970   -0.8798 H   0  0  0  0  0  0
    7.3514   -4.3631    0.0332 H   0  0  0  0  0  0
    4.9475   -5.3037    1.1558 H   0  0  0  0  0  0
  1  2  1  0  0  0
  1 14  1  0  0  0
  1 15  1  0  0  0
  1 16  1  0  0  0
  2  3  1  0  0  0
  2 17  1  0  0  0
  2 18  1  0  0  0
  3  4  1  0  0  0
  3 19  1  0  0  0
  3 20  1  0  0  0
  4  5  1  0  0  0
  4 21  1  0  0  0
  4 22  1  0  0  0
  5  6  1  0  0  0
  5 23  1  0  0  0
  5 24  1  0  0  0
  6  7  1  0  0  0
  6 25  1  0  0  0
  6 26  1  0  0  0
  7  8  1  0  0  0
  7 27  1  0  0  0
  7 28  1  0  0  0
  8  9  1  0  0  0
  8 29  1  0  0  0
  8 30  1  0  0  0
  9 10  1  0  0  0
  9 31  1  0  0  0
  9 32  1  0  0  0
 10 11  1  0  0  0
 10 33  1  0  0  0
 10 34  1  0  0  0
 11 12  1  0  0  0
 11 35  1  0  0  0
 11 36  1  0  0  0
 12 13  1  0  0  0
 12 37  1  0  0  0
 12 38  1  0  0  0
 13 39  1  0  0  0
M  END
>  <i_m_Spin_multiplicity> (1)
1

>  <s_j_Task> (1)
Single Point

>  <s_j_QM_Method> (1)
DFT(b3lyp-d3)

>  <s_j_QM_Basis> (1)
cc-pvtz(-f)

>  <i_j_Number_of_canonical_orbitals> (1)
530

>  <i_j_Geometry_convergence_category> (1)
3

>  <r_j_Gas_Phase_Energy> (1)
-548.400622912597

>  <r_j_Final_Energy> (1)
-548.400622912597

>  <r_j_HOMO> (1)
-0.291682345195957

>  <r_j_LUMO> (1)
0.00407242881013399

>  <r_j_Polarizability> (1)
154.555381453361

>  <r_j_QM_Dipole_(debye)> (1)
1.69489622536256

>  <r_j_QM_Dipole_X_(debye)> (1)
-1.11362642827444

>  <r_j_QM_Dipole_Y_(debye)> (1)
0.678955102618777

>  <r_j_QM_Dipole_Z_(debye)> (1)
-1.08237209943018

>  <r_j_Lowest_Frequency_(cm-1)> (1)
39.6583439972531

>  <r_j_Highest_Frequency_(cm-1)> (1)
3772.13148167581

>  <r_j_2nd_Lowest_Frequency_(cm-1)> (1)
49.4935189435264

>  <i_j_Num_Negative_Frequencies> (1)
0

>  <r_j_Zero_Point_Energy_(kcal/mol)> (1)
228.855846513278

>  <r_j_Entropy_(cal/mol/K)_298.15K_1.00E+00atm> (1)
126.021629765079

>  <r_j_Enthalpy_(kcal/mol)_298.15K_1.00E+00atm> (1)
10.762263368381

>  <r_j_Free_Energy_(kcal/mol)_298.15K_1.00E+00atm> (1)
-26.8110855460773

>  <r_j_Internal_Energy_(kcal/mol)_298.15K_1.00E+00atm> (1)
10.1697777795537

>  <r_j_Heat_Capacity_(cal/mol/K)_298.15K_1.00E+00atm> (1)
60.5900535842839

>  <r_j_ln(Q)_298.15K_1.00E+00atm> (1)
45.251877938745

>  <r_j_Total_Internal_Energy_(au)_298.15K_1.00E+00atm> (1)
-548.019711331625

>  <r_j_Total_Enthalpy_(au)_298.15K_1.00E+00atm> (1)
-548.018767145733

>  <r_j_Total_Free_Energy_(au)_298.15K_1.00E+00atm> (1)
-548.078644088968

>  <r_lp_tautomer_probability> (1)
1

>  <r_epik_Ionization_Penalty> (1)
  0.0000

>  <r_epik_Ionization_Penalty_Charging> (1)
  0.0000

>  <r_epik_Ionization_Penalty_Neutral> (1)
  0.0000

>  <r_epik_State_Penalty> (1)
  0.0000

>  <r_epik_Charging_Adjusted_Penalty> (1)
0

>  <i_epik_Tot_Q> (1)
0

>  <i_epik_Tot_abs_Q> (1)
0

>  <s_lp_Force_Field> (1)
S-OPLS

>  <r_lp_Energy> (1)
6.2153

>  <b_lp_Chiralities_Consistent> (1)
1

$$$$
