8203_Methyl 9,12-octadecadienoate
                    3D
 Schrodinger Suite 2021-3.
 55 54  0  0  1  0            999 V2000
   -1.9744   -3.7656   -4.1794 C   0  0  0  0  0  0
   -1.4904   -2.4708   -4.8392 C   0  0  0  0  0  0
   -1.9279   -1.2111   -4.0815 C   0  0  0  0  0  0
   -1.3308    0.0785   -4.6561 C   0  0  0  0  0  0
   -1.8409    1.3639   -3.9729 C   0  0  0  0  0  0
   -1.5297    1.4115   -2.5011 C   0  0  0  0  0  0
   -2.4248    1.6045   -1.5297 C   0  0  0  0  0  0
   -2.1437    1.6153   -0.0401 C   0  0  0  0  0  0
   -0.6827    1.5456    0.3128 C   0  0  0  0  0  0
   -0.0612    0.4386    0.7244 C   0  0  0  0  0  0
    1.4256    0.3030    0.9303 C   0  0  0  0  0  0
    2.1481   -0.2094   -0.3372 C   0  0  0  0  0  0
    1.5837   -1.5205   -0.8966 C   0  0  0  0  0  0
    2.3460   -2.0266   -2.1259 C   0  0  0  0  0  0
    1.7040   -3.2635   -2.7621 C   0  0  0  0  0  0
    2.4822   -3.7897   -3.9747 C   0  0  0  0  0  0
    1.7305   -4.8800   -4.7585 C   0  0  0  0  0  0
    1.2811   -6.0497   -3.9082 C   0  0  0  0  0  0
    0.1605   -6.5128   -3.8823 O   0  0  0  0  0  0
    2.3010   -6.5397   -3.1633 O   0  0  0  0  0  0
    1.9604   -7.6519   -2.3175 C   0  0  0  0  0  0
   -1.6105   -4.6594   -4.6938 H   0  0  0  0  0  0
   -3.0695   -3.8056   -4.1572 H   0  0  0  0  0  0
   -1.6233   -3.8323   -3.1431 H   0  0  0  0  0  0
   -0.3939   -2.4780   -4.9116 H   0  0  0  0  0  0
   -1.8557   -2.4199   -5.8741 H   0  0  0  0  0  0
   -3.0254   -1.1431   -4.0876 H   0  0  0  0  0  0
   -1.6419   -1.3017   -3.0248 H   0  0  0  0  0  0
   -0.2352    0.0346   -4.5693 H   0  0  0  0  0  0
   -1.5486    0.1378   -5.7310 H   0  0  0  0  0  0
   -1.3785    2.2273   -4.4736 H   0  0  0  0  0  0
   -2.9237    1.4581   -4.1281 H   0  0  0  0  0  0
   -0.4854    1.2499   -2.2308 H   0  0  0  0  0  0
   -3.4709    1.7546   -1.8021 H   0  0  0  0  0  0
   -2.5957    2.5197    0.3945 H   0  0  0  0  0  0
   -2.6777    0.7716    0.4212 H   0  0  0  0  0  0
   -0.1005    2.4539    0.1492 H   0  0  0  0  0  0
   -0.6542   -0.4677    0.8545 H   0  0  0  0  0  0
    1.8555    1.2713    1.2138 H   0  0  0  0  0  0
    1.6255   -0.3874    1.7606 H   0  0  0  0  0  0
    2.0773    0.5655   -1.1126 H   0  0  0  0  0  0
    3.2171   -0.3332   -0.1159 H   0  0  0  0  0  0
    1.5941   -2.2931   -0.1140 H   0  0  0  0  0  0
    0.5299   -1.3729   -1.1675 H   0  0  0  0  0  0
    2.3937   -1.2236   -2.8760 H   0  0  0  0  0  0
    3.3872   -2.2480   -1.8510 H   0  0  0  0  0  0
    1.6220   -4.0624   -2.0127 H   0  0  0  0  0  0
    0.6773   -3.0188   -3.0603 H   0  0  0  0  0  0
    2.6932   -2.9626   -4.6647 H   0  0  0  0  0  0
    3.4508   -4.1815   -3.6451 H   0  0  0  0  0  0
    0.8323   -4.4761   -5.2304 H   0  0  0  0  0  0
    2.3748   -5.2759   -5.5533 H   0  0  0  0  0  0
    2.8793   -7.9191   -1.7952 H   0  0  0  0  0  0
    1.5974   -8.4934   -2.9137 H   0  0  0  0  0  0
    1.1812   -7.3684   -1.6047 H   0  0  0  0  0  0
  1  2  1  0  0  0
  1 22  1  0  0  0
  1 23  1  0  0  0
  1 24  1  0  0  0
  2  3  1  0  0  0
  2 25  1  0  0  0
  2 26  1  0  0  0
  3  4  1  0  0  0
  3 27  1  0  0  0
  3 28  1  0  0  0
  4  5  1  0  0  0
  4 29  1  0  0  0
  4 30  1  0  0  0
  5  6  1  0  0  0
  5 31  1  0  0  0
  5 32  1  0  0  0
  6  7  2  0  0  0
  6 33  1  0  0  0
  7  8  1  0  0  0
  7 34  1  0  0  0
  8  9  1  0  0  0
  8 35  1  0  0  0
  8 36  1  0  0  0
  9 10  2  0  0  0
  9 37  1  0  0  0
 10 11  1  0  0  0
 10 38  1  0  0  0
 11 12  1  0  0  0
 11 39  1  0  0  0
 11 40  1  0  0  0
 12 13  1  0  0  0
 12 41  1  0  0  0
 12 42  1  0  0  0
 13 14  1  0  0  0
 13 43  1  0  0  0
 13 44  1  0  0  0
 14 15  1  0  0  0
 14 45  1  0  0  0
 14 46  1  0  0  0
 15 16  1  0  0  0
 15 47  1  0  0  0
 15 48  1  0  0  0
 16 17  1  0  0  0
 16 49  1  0  0  0
 16 50  1  0  0  0
 17 18  1  0  0  0
 17 51  1  0  0  0
 17 52  1  0  0  0
 18 19  2  0  0  0
 18 20  1  0  0  0
 20 21  1  0  0  0
 21 53  1  0  0  0
 21 54  1  0  0  0
 21 55  1  0  0  0
M  END
>  <i_m_Spin_multiplicity> (1)
1

>  <s_j_Task> (1)
Single Point

>  <s_j_QM_Method> (1)
DFT(b3lyp-d3)

>  <s_j_QM_Basis> (1)
cc-pvtz(-f)

>  <i_j_Number_of_canonical_orbitals> (1)
782

>  <i_j_Geometry_convergence_category> (1)
3

>  <r_j_Gas_Phase_Energy> (1)
-895.299599057585

>  <r_j_Final_Energy> (1)
-895.299599057585

>  <r_j_HOMO> (1)
-0.227479198408164

>  <r_j_LUMO> (1)
-0.00828512340712534

>  <r_j_Polarizability> (1)
232.791762675725

>  <r_j_QM_Dipole_(debye)> (1)
1.89537448941516

>  <r_j_QM_Dipole_X_(debye)> (1)
1.84841850682384

>  <r_j_QM_Dipole_Y_(debye)> (1)
0.0985095502235434

>  <r_j_QM_Dipole_Z_(debye)> (1)
0.407540608125924

>  <r_j_Lowest_Frequency_(cm-1)> (1)
37.5844012081505

>  <r_j_Highest_Frequency_(cm-1)> (1)
3106.59065372499

>  <r_j_2nd_Lowest_Frequency_(cm-1)> (1)
44.2211276870369

>  <i_j_Num_Negative_Frequencies> (1)
0

>  <r_j_Zero_Point_Energy_(kcal/mol)> (1)
312.98897382388

>  <r_j_Entropy_(cal/mol/K)_298.15K_1.00E+00atm> (1)
159.25203362422

>  <r_j_Enthalpy_(kcal/mol)_298.15K_1.00E+00atm> (1)
15.5815387517838

>  <r_j_Free_Energy_(kcal/mol)_298.15K_1.00E+00atm> (1)
-31.8994550732775

>  <r_j_Internal_Energy_(kcal/mol)_298.15K_1.00E+00atm> (1)
14.9890531629565

>  <r_j_Heat_Capacity_(cal/mol/K)_298.15K_1.00E+00atm> (1)
91.6995050567489

>  <r_j_ln(Q)_298.15K_1.00E+00atm> (1)
53.8400522726926

>  <r_j_Total_Internal_Energy_(au)_298.15K_1.00E+00atm> (1)
-894.77693279888

>  <r_j_Total_Enthalpy_(au)_298.15K_1.00E+00atm> (1)
-894.775988612988

>  <r_j_Total_Free_Energy_(au)_298.15K_1.00E+00atm> (1)
-894.851654393498

>  <r_lp_tautomer_probability> (1)
1

>  <r_epik_Ionization_Penalty> (1)
  0.0000

>  <r_epik_Ionization_Penalty_Charging> (1)
  0.0000

>  <r_epik_Ionization_Penalty_Neutral> (1)
  0.0000

>  <r_epik_State_Penalty> (1)
  0.0000

>  <r_epik_Charging_Adjusted_Penalty> (1)
0

>  <i_epik_Tot_Q> (1)
0

>  <i_epik_Tot_abs_Q> (1)
0

>  <s_lp_Force_Field> (1)
S-OPLS

>  <r_lp_Energy> (1)
-1.918786

>  <b_lp_Chiralities_Consistent> (1)
1

>  <s_epik_Chemistry_Notes> (1)
This compound has an ester and may undergo hydrolysis at high or low pH.

$$$$
