8221_n-Octadecanol
                    3D
 Schrodinger Suite 2021-3.
 57 56  0  0  1  0            999 V2000
   -8.6703    2.1156    0.1561 C   0  0  0  0  0  0
   -7.1461    1.9642    0.1659 C   0  0  0  0  0  0
   -6.4560    2.8243   -0.9021 C   0  0  0  0  0  0
   -4.9343    2.6283   -0.9872 C   0  0  0  0  0  0
   -4.1662    3.1068    0.2542 C   0  0  0  0  0  0
   -2.6385    2.9910    0.1319 C   0  0  0  0  0  0
   -2.1221    1.5484    0.0484 C   0  0  0  0  0  0
   -0.5929    1.4491    0.0079 C   0  0  0  0  0  0
   -0.0862    0.0045   -0.0761 C   0  0  0  0  0  0
    1.4430   -0.1016   -0.1438 C   0  0  0  0  0  0
    1.9799   -1.5416   -0.1394 C   0  0  0  0  0  0
    1.5667   -2.3774   -1.3583 C   0  0  0  0  0  0
    2.1889   -3.7785   -1.3711 C   0  0  0  0  0  0
    1.7571   -4.6225   -2.5757 C   0  0  0  0  0  0
    2.3787   -6.0234   -2.5965 C   0  0  0  0  0  0
    1.9367   -6.8632   -3.7995 C   0  0  0  0  0  0
    2.5646   -8.2611   -3.8224 C   0  0  0  0  0  0
    2.1473   -9.0877   -5.0321 C   0  0  0  0  0  0
    2.6103   -8.4201   -6.2042 O   0  0  0  0  0  0
   -9.1421    1.4941    0.9243 H   0  0  0  0  0  0
   -9.0897    1.8238   -0.8138 H   0  0  0  0  0  0
   -8.9638    3.1553    0.3418 H   0  0  0  0  0  0
   -6.7634    2.2254    1.1601 H   0  0  0  0  0  0
   -6.8794    0.9104    0.0044 H   0  0  0  0  0  0
   -6.8998    2.5916   -1.8799 H   0  0  0  0  0  0
   -6.6790    3.8845   -0.7131 H   0  0  0  0  0  0
   -4.7256    1.5659   -1.1693 H   0  0  0  0  0  0
   -4.5515    3.1677   -1.8646 H   0  0  0  0  0  0
   -4.4327    4.1550    0.4480 H   0  0  0  0  0  0
   -4.4934    2.5418    1.1370 H   0  0  0  0  0  0
   -2.2995    3.5500   -0.7522 H   0  0  0  0  0  0
   -2.1737    3.4822    0.9976 H   0  0  0  0  0  0
   -2.5005    0.9800    0.9107 H   0  0  0  0  0  0
   -2.5327    1.0552   -0.8422 H   0  0  0  0  0  0
   -0.2144    2.0180   -0.8535 H   0  0  0  0  0  0
   -0.1703    1.9340    0.8996 H   0  0  0  0  0  0
   -0.4499   -0.5596    0.7952 H   0  0  0  0  0  0
   -0.5327   -0.4768   -0.9559 H   0  0  0  0  0  0
    1.8013    0.4162   -1.0452 H   0  0  0  0  0  0
    1.8735    0.4414    0.7085 H   0  0  0  0  0  0
    3.0767   -1.5121   -0.0864 H   0  0  0  0  0  0
    1.6461   -2.0500    0.7768 H   0  0  0  0  0  0
    0.4738   -2.4746   -1.3915 H   0  0  0  0  0  0
    1.8518   -1.8439   -2.2768 H   0  0  0  0  0  0
    3.2849   -3.6913   -1.3608 H   0  0  0  0  0  0
    1.9190   -4.3041   -0.4438 H   0  0  0  0  0  0
    0.6612   -4.7115   -2.5816 H   0  0  0  0  0  0
    2.0217   -4.0953   -3.5034 H   0  0  0  0  0  0
    3.4745   -5.9342   -2.5981 H   0  0  0  0  0  0
    2.1198   -6.5497   -1.6661 H   0  0  0  0  0  0
    0.8410   -6.9595   -3.7943 H   0  0  0  0  0  0
    2.1946   -6.3459   -4.7307 H   0  0  0  0  0  0
    3.6589   -8.1765   -3.8230 H   0  0  0  0  0  0
    2.2895   -8.8129   -2.9132 H   0  0  0  0  0  0
    2.5748  -10.1009   -4.9568 H   0  0  0  0  0  0
    1.0490   -9.1951   -5.0439 H   0  0  0  0  0  0
    2.3138   -8.9219   -6.9734 H   0  0  0  0  0  0
  1  2  1  0  0  0
  1 20  1  0  0  0
  1 21  1  0  0  0
  1 22  1  0  0  0
  2  3  1  0  0  0
  2 23  1  0  0  0
  2 24  1  0  0  0
  3  4  1  0  0  0
  3 25  1  0  0  0
  3 26  1  0  0  0
  4  5  1  0  0  0
  4 27  1  0  0  0
  4 28  1  0  0  0
  5  6  1  0  0  0
  5 29  1  0  0  0
  5 30  1  0  0  0
  6  7  1  0  0  0
  6 31  1  0  0  0
  6 32  1  0  0  0
  7  8  1  0  0  0
  7 33  1  0  0  0
  7 34  1  0  0  0
  8  9  1  0  0  0
  8 35  1  0  0  0
  8 36  1  0  0  0
  9 10  1  0  0  0
  9 37  1  0  0  0
  9 38  1  0  0  0
 10 11  1  0  0  0
 10 39  1  0  0  0
 10 40  1  0  0  0
 11 12  1  0  0  0
 11 41  1  0  0  0
 11 42  1  0  0  0
 12 13  1  0  0  0
 12 43  1  0  0  0
 12 44  1  0  0  0
 13 14  1  0  0  0
 13 45  1  0  0  0
 13 46  1  0  0  0
 14 15  1  0  0  0
 14 47  1  0  0  0
 14 48  1  0  0  0
 15 16  1  0  0  0
 15 49  1  0  0  0
 15 50  1  0  0  0
 16 17  1  0  0  0
 16 51  1  0  0  0
 16 52  1  0  0  0
 17 18  1  0  0  0
 17 53  1  0  0  0
 17 54  1  0  0  0
 18 19  1  0  0  0
 18 55  1  0  0  0
 18 56  1  0  0  0
 19 57  1  0  0  0
M  END
> <i_m_Spin_multiplicity>
1

> <s_j_Task>
Single Point

> <s_j_QM_Method>
DFT(b3lyp-d3)

> <s_j_QM_Basis>
cc-pvtz(-f)

> <i_j_Number_of_canonical_orbitals>
774

> <i_j_Geometry_convergence_category>
3

> <r_j_Gas_Phase_Energy>
-784.374410749749

> <r_j_Final_Energy>
-784.374410749749

> <r_j_HOMO>
-0.289912649093833

> <r_j_LUMO>
0.0100931632724547

> <r_j_Polarizability>
228.010014099549

> <r_j_QM_Dipole_(debye)>
1.44246074536347

> <r_j_QM_Dipole_X_(debye)>
-0.680732858440775

> <r_j_QM_Dipole_Y_(debye)>
-1.26163462722767

> <r_j_QM_Dipole_Z_(debye)>
-0.159918243905059

> <r_j_Lowest_Frequency_(cm-1)>
21.2441706078066

> <r_j_Highest_Frequency_(cm-1)>
3776.64010451565

> <r_j_2nd_Lowest_Frequency_(cm-1)>
39.9056707478844

> <i_j_Num_Negative_Frequencies>
0

> <r_j_Zero_Point_Energy_(kcal/mol)>
336.377155838626

> <r_j_Entropy_(cal/mol/K)_298.15K_1.00E+00atm>
158.672965737231

> <r_j_Enthalpy_(kcal/mol)_298.15K_1.00E+00atm>
15.1858474905891

> <r_j_Free_Energy_(kcal/mol)_298.15K_1.00E+00atm>
-32.1224972439662

> <r_j_Internal_Energy_(kcal/mol)_298.15K_1.00E+00atm>
14.5933619017619

> <r_j_Heat_Capacity_(cal/mol/K)_298.15K_1.00E+00atm>
88.8284065222262

> <r_j_ln(Q)_298.15K_1.00E+00atm>
54.2165039111708

> <r_j_Total_Internal_Energy_(au)_298.15K_1.00E+00atm>
-783.815103624487

> <r_j_Total_Enthalpy_(au)_298.15K_1.00E+00atm>
-783.814159438595

> <r_j_Total_Free_Energy_(au)_298.15K_1.00E+00atm>
-783.889550085265

> <r_lp_tautomer_probability>
1

> <r_epik_Ionization_Penalty>
  0.0000

> <r_epik_Ionization_Penalty_Charging>
  0.0000

> <r_epik_Ionization_Penalty_Neutral>
  0.0000

> <r_epik_State_Penalty>
  0.0000

> <r_epik_Charging_Adjusted_Penalty>
0

> <i_epik_Tot_Q>
0

> <i_epik_Tot_abs_Q>
0

> <s_lp_Force_Field>
S-OPLS

> <r_lp_Energy>
10.567396

> <b_lp_Chiralities_Consistent>
1

$$$$
