8222_Eicosane
                    3D
 Schrodinger Suite 2021-3.
 62 61  0  0  1  0            999 V2000
   -9.1702   -1.0353   -5.1433 C   0  0  0  0  0  0
   -8.5388   -0.2627   -3.9812 C   0  0  0  0  0  0
   -7.0131   -0.4035   -3.9237 C   0  0  0  0  0  0
   -6.3746    0.3661   -2.7620 C   0  0  0  0  0  0
   -4.8497    0.2238   -2.6971 C   0  0  0  0  0  0
   -4.2171    0.9897   -1.5294 C   0  0  0  0  0  0
   -2.6935    0.8376   -1.4537 C   0  0  0  0  0  0
   -2.0713    1.5869   -0.2679 C   0  0  0  0  0  0
   -0.5381    1.5090   -0.1973 C   0  0  0  0  0  0
    0.0125    0.0908    0.0037 C   0  0  0  0  0  0
    1.5328    0.0587    0.2120 C   0  0  0  0  0  0
    2.1314   -1.3556    0.2689 C   0  0  0  0  0  0
    1.6442   -2.2056    1.4497 C   0  0  0  0  0  0
    2.2742   -3.6026    1.4882 C   0  0  0  0  0  0
    1.7735   -4.4634    2.6538 C   0  0  0  0  0  0
    2.3515   -5.8832    2.6554 C   0  0  0  0  0  0
    1.8374   -6.7422    3.8182 C   0  0  0  0  0  0
    2.4131   -8.1661    3.8624 C   0  0  0  0  0  0
    2.0020   -9.0542    2.6797 C   0  0  0  0  0  0
    2.5211  -10.4897    2.8070 C   0  0  0  0  0  0
  -10.2588   -0.9182   -5.1612 H   0  0  0  0  0  0
   -8.9510   -2.1068   -5.0695 H   0  0  0  0  0  0
   -8.7812   -0.6856   -6.1066 H   0  0  0  0  0  0
   -8.8004    0.8013   -4.0611 H   0  0  0  0  0  0
   -8.9691   -0.6098   -3.0318 H   0  0  0  0  0  0
   -6.7500   -1.4683   -3.8438 H   0  0  0  0  0  0
   -6.5803   -0.0563   -4.8730 H   0  0  0  0  0  0
   -6.6370    1.4307   -2.8438 H   0  0  0  0  0  0
   -6.8114    0.0197   -1.8142 H   0  0  0  0  0  0
   -4.5875   -0.8410   -2.6173 H   0  0  0  0  0  0
   -4.4103    0.5729   -3.6425 H   0  0  0  0  0  0
   -4.4743    2.0556   -1.6108 H   0  0  0  0  0  0
   -4.6624    0.6431   -0.5857 H   0  0  0  0  0  0
   -2.4465   -0.2302   -1.3917 H   0  0  0  0  0  0
   -2.2425    1.1999   -2.3891 H   0  0  0  0  0  0
   -2.3731    2.6420   -0.3180 H   0  0  0  0  0  0
   -2.4959    1.1948    0.6676 H   0  0  0  0  0  0
   -0.1080    1.9381   -1.1137 H   0  0  0  0  0  0
   -0.1886    2.1447    0.6277 H   0  0  0  0  0  0
   -0.4930   -0.3662    0.8648 H   0  0  0  0  0  0
   -0.2388   -0.5341   -0.8637 H   0  0  0  0  0  0
    2.0134    0.6143   -0.6049 H   0  0  0  0  0  0
    1.7841    0.6001    1.1355 H   0  0  0  0  0  0
    1.9030   -1.8805   -0.6700 H   0  0  0  0  0  0
    3.2263   -1.2799    0.3145 H   0  0  0  0  0  0
    1.8606   -1.6785    2.3904 H   0  0  0  0  0  0
    0.5526   -2.3129    1.4065 H   0  0  0  0  0  0
    2.0627   -4.1188    0.5406 H   0  0  0  0  0  0
    3.3684   -3.5115    1.5445 H   0  0  0  0  0  0
    2.0155   -3.9672    3.6047 H   0  0  0  0  0  0
    0.6761   -4.5217    2.6147 H   0  0  0  0  0  0
    2.1088   -6.3641    1.6989 H   0  0  0  0  0  0
    3.4491   -5.8327    2.7001 H   0  0  0  0  0  0
    2.0703   -6.2327    4.7631 H   0  0  0  0  0  0
    0.7403   -6.7985    3.7674 H   0  0  0  0  0  0
    3.5105   -8.1147    3.9115 H   0  0  0  0  0  0
    2.0913   -8.6514    4.7941 H   0  0  0  0  0  0
    0.9058   -9.0639    2.6028 H   0  0  0  0  0  0
    2.3689   -8.6198    1.7417 H   0  0  0  0  0  0
    2.2178  -11.1049    1.9533 H   0  0  0  0  0  0
    2.1395  -10.9686    3.7162 H   0  0  0  0  0  0
    3.6158  -10.5092    2.8597 H   0  0  0  0  0  0
  1  2  1  0  0  0
  1 21  1  0  0  0
  1 22  1  0  0  0
  1 23  1  0  0  0
  2  3  1  0  0  0
  2 24  1  0  0  0
  2 25  1  0  0  0
  3  4  1  0  0  0
  3 26  1  0  0  0
  3 27  1  0  0  0
  4  5  1  0  0  0
  4 28  1  0  0  0
  4 29  1  0  0  0
  5  6  1  0  0  0
  5 30  1  0  0  0
  5 31  1  0  0  0
  6  7  1  0  0  0
  6 32  1  0  0  0
  6 33  1  0  0  0
  7  8  1  0  0  0
  7 34  1  0  0  0
  7 35  1  0  0  0
  8  9  1  0  0  0
  8 36  1  0  0  0
  8 37  1  0  0  0
  9 10  1  0  0  0
  9 38  1  0  0  0
  9 39  1  0  0  0
 10 11  1  0  0  0
 10 40  1  0  0  0
 10 41  1  0  0  0
 11 12  1  0  0  0
 11 42  1  0  0  0
 11 43  1  0  0  0
 12 13  1  0  0  0
 12 44  1  0  0  0
 12 45  1  0  0  0
 13 14  1  0  0  0
 13 46  1  0  0  0
 13 47  1  0  0  0
 14 15  1  0  0  0
 14 48  1  0  0  0
 14 49  1  0  0  0
 15 16  1  0  0  0
 15 50  1  0  0  0
 15 51  1  0  0  0
 16 17  1  0  0  0
 16 52  1  0  0  0
 16 53  1  0  0  0
 17 18  1  0  0  0
 17 54  1  0  0  0
 17 55  1  0  0  0
 18 19  1  0  0  0
 18 56  1  0  0  0
 18 57  1  0  0  0
 19 20  1  0  0  0
 19 58  1  0  0  0
 19 59  1  0  0  0
 20 60  1  0  0  0
 20 61  1  0  0  0
 20 62  1  0  0  0
M  END
>  <i_m_Spin_multiplicity> (1)
1

>  <s_j_Task> (1)
Single Point

>  <s_j_QM_Method> (1)
DFT(b3lyp-d3)

>  <s_j_QM_Basis> (1)
cc-pvtz(-f)

>  <i_j_Number_of_canonical_orbitals> (1)
832

>  <i_j_Geometry_convergence_category> (1)
0

>  <r_j_Gas_Phase_Energy> (1)
-787.791812002695

>  <r_j_Final_Energy> (1)
-787.791812002695

>  <r_j_HOMO> (1)
-0.283983663088615

>  <r_j_LUMO> (1)
-0.028795692037528

>  <r_j_Polarizability> (1)
249.014972190949

>  <r_j_QM_Dipole_(debye)> (1)
0.0982313534326625

>  <r_j_QM_Dipole_X_(debye)> (1)
-0.00277547987730304

>  <r_j_QM_Dipole_Y_(debye)> (1)
0.0939040389991742

>  <r_j_QM_Dipole_Z_(debye)> (1)
0.0287006440398975

>  <r_j_Lowest_Frequency_(cm-1)> (1)
19.8917992283968

>  <r_j_Highest_Frequency_(cm-1)> (1)
3045.73829342777

>  <r_j_2nd_Lowest_Frequency_(cm-1)> (1)
38.1345938526566

>  <i_j_Num_Negative_Frequencies> (1)
0

>  <r_j_Zero_Point_Energy_(kcal/mol)> (1)
368.810128502401

>  <r_j_Entropy_(cal/mol/K)_298.15K_1.00E+00atm> (1)
164.852001720928

>  <r_j_Enthalpy_(kcal/mol)_298.15K_1.00E+00atm> (1)
16.1146273945153

>  <r_j_Free_Energy_(kcal/mol)_298.15K_1.00E+00atm> (1)
-33.0359969185794

>  <r_j_Internal_Energy_(kcal/mol)_298.15K_1.00E+00atm> (1)
15.5221418056881

>  <r_j_Heat_Capacity_(cal/mol/K)_298.15K_1.00E+00atm> (1)
94.9213038354658

>  <r_j_ln(Q)_298.15K_1.00E+00atm> (1)
55.7583130147834

>  <r_j_Total_Internal_Energy_(au)_298.15K_1.00E+00atm> (1)
-787.179339540235

>  <r_j_Total_Enthalpy_(au)_298.15K_1.00E+00atm> (1)
-787.178395354343

>  <r_j_Total_Free_Energy_(au)_298.15K_1.00E+00atm> (1)
-787.256721860416

>  <r_lp_tautomer_probability> (1)
1

>  <r_epik_Ionization_Penalty> (1)
  0.0000

>  <r_epik_Ionization_Penalty_Charging> (1)
  0.0000

>  <r_epik_Ionization_Penalty_Neutral> (1)
  0.0000

>  <r_epik_State_Penalty> (1)
  0.0000

>  <r_epik_Charging_Adjusted_Penalty> (1)
0

>  <i_epik_Tot_Q> (1)
0

>  <i_epik_Tot_abs_Q> (1)
0

>  <s_lp_Force_Field> (1)
S-OPLS

>  <r_lp_Energy> (1)
10.503377

>  <b_lp_Chiralities_Consistent> (1)
1

$$$$
