82436_1-Tetracosene
                    3D
 Schrodinger Suite 2021-3.
 72 71  0  0  1  0            999 V2000
  -10.9919    7.0003   -0.0885 C   0  0  0  0  0  0
   -9.4629    7.0296   -0.1699 C   0  0  0  0  0  0
   -8.8291    5.6352   -0.0952 C   0  0  0  0  0  0
   -7.2988    5.6586   -0.1786 C   0  0  0  0  0  0
   -6.6574    4.2685   -0.1007 C   0  0  0  0  0  0
   -5.1270    4.3030   -0.1830 C   0  0  0  0  0  0
   -4.4756    2.9178   -0.1013 C   0  0  0  0  0  0
   -2.9448    2.9628   -0.1736 C   0  0  0  0  0  0
   -2.2863    1.5817   -0.0813 C   0  0  0  0  0  0
   -0.7548    1.6329   -0.1340 C   0  0  0  0  0  0
   -0.0946    0.2539   -0.0235 C   0  0  0  0  0  0
    1.4378    0.3059   -0.0436 C   0  0  0  0  0  0
    2.0858   -1.0772    0.1015 C   0  0  0  0  0  0
    3.6214   -1.0772    0.0477 C   0  0  0  0  0  0
    4.2939   -0.3020    1.1894 C   0  0  0  0  0  0
    5.8157   -0.4827    1.2330 C   0  0  0  0  0  0
    6.4887    0.3167    2.3551 C   0  0  0  0  0  0
    7.9926    0.0489    2.4817 C   0  0  0  0  0  0
    8.6644    0.8611    3.5955 C   0  0  0  0  0  0
   10.1404    0.5044    3.8024 C   0  0  0  0  0  0
   10.8148    1.3308    4.9033 C   0  0  0  0  0  0
   12.2700    0.9060    5.1897 C   0  0  0  0  0  0
   13.1909    1.1166    4.0191 C   0  0  0  0  0  0
   13.8649    0.1587    3.3820 C   0  0  0  0  0  0
  -11.4181    8.0076   -0.1436 H   0  0  0  0  0  0
  -11.3279    6.5469    0.8513 H   0  0  0  0  0  0
  -11.4192    6.4118   -0.9088 H   0  0  0  0  0  0
   -9.1533    7.5170   -1.1046 H   0  0  0  0  0  0
   -9.0629    7.6516    0.6426 H   0  0  0  0  0  0
   -9.1358    5.1470    0.8412 H   0  0  0  0  0  0
   -9.2293    5.0103   -0.9066 H   0  0  0  0  0  0
   -6.9941    6.1464   -1.1158 H   0  0  0  0  0  0
   -6.9011    6.2869    0.6315 H   0  0  0  0  0  0
   -6.9601    3.7799    0.8367 H   0  0  0  0  0  0
   -7.0520    3.6388   -0.9110 H   0  0  0  0  0  0
   -4.8249    4.7916   -1.1206 H   0  0  0  0  0  0
   -4.7350    4.9357    0.6264 H   0  0  0  0  0  0
   -4.7802    2.4276    0.8346 H   0  0  0  0  0  0
   -4.8609    2.2848   -0.9135 H   0  0  0  0  0  0
   -2.6391    3.4499   -1.1108 H   0  0  0  0  0  0
   -2.5629    3.6009    0.6364 H   0  0  0  0  0  0
   -2.5996    1.0924    0.8522 H   0  0  0  0  0  0
   -2.6586    0.9445   -0.8963 H   0  0  0  0  0  0
   -0.4378    2.1156   -1.0697 H   0  0  0  0  0  0
   -0.3864    2.2768    0.6776 H   0  0  0  0  0  0
   -0.4258   -0.2315    0.9061 H   0  0  0  0  0  0
   -0.4498   -0.3881   -0.8423 H   0  0  0  0  0  0
    1.7773    0.7710   -0.9806 H   0  0  0  0  0  0
    1.7809    0.9654    0.7643 H   0  0  0  0  0  0
    1.7612   -1.5270    1.0512 H   0  0  0  0  0  0
    1.7008   -1.7335   -0.6910 H   0  0  0  0  0  0
    3.9744   -2.1173    0.0701 H   0  0  0  0  0  0
    3.9546   -0.6654   -0.9158 H   0  0  0  0  0  0
    4.0601    0.7673    1.1049 H   0  0  0  0  0  0
    3.8662   -0.6300    2.1484 H   0  0  0  0  0  0
    6.0484   -1.5502    1.3572 H   0  0  0  0  0  0
    6.2490   -0.1900    0.2658 H   0  0  0  0  0  0
    6.3175    1.3903    2.1911 H   0  0  0  0  0  0
    6.0010    0.0772    3.3113 H   0  0  0  0  0  0
    8.1516   -1.0229    2.6689 H   0  0  0  0  0  0
    8.4876    0.2645    1.5241 H   0  0  0  0  0  0
    8.5715    1.9335    3.3710 H   0  0  0  0  0  0
    8.1193    0.7028    4.5375 H   0  0  0  0  0  0
   10.2223   -0.5633    4.0531 H   0  0  0  0  0  0
   10.6901    0.6325    2.8610 H   0  0  0  0  0  0
   10.7920    2.3949    4.6280 H   0  0  0  0  0  0
   10.2345    1.2445    5.8316 H   0  0  0  0  0  0
   12.6408    1.4846    6.0478 H   0  0  0  0  0  0
   12.2898   -0.1496    5.4903 H   0  0  0  0  0  0
   13.2855    2.1485    3.6755 H   0  0  0  0  0  0
   13.7946   -0.8833    3.6857 H   0  0  0  0  0  0
   14.5118    0.3774    2.5374 H   0  0  0  0  0  0
  1  2  1  0  0  0
  1 25  1  0  0  0
  1 26  1  0  0  0
  1 27  1  0  0  0
  2  3  1  0  0  0
  2 28  1  0  0  0
  2 29  1  0  0  0
  3  4  1  0  0  0
  3 30  1  0  0  0
  3 31  1  0  0  0
  4  5  1  0  0  0
  4 32  1  0  0  0
  4 33  1  0  0  0
  5  6  1  0  0  0
  5 34  1  0  0  0
  5 35  1  0  0  0
  6  7  1  0  0  0
  6 36  1  0  0  0
  6 37  1  0  0  0
  7  8  1  0  0  0
  7 38  1  0  0  0
  7 39  1  0  0  0
  8  9  1  0  0  0
  8 40  1  0  0  0
  8 41  1  0  0  0
  9 10  1  0  0  0
  9 42  1  0  0  0
  9 43  1  0  0  0
 10 11  1  0  0  0
 10 44  1  0  0  0
 10 45  1  0  0  0
 11 12  1  0  0  0
 11 46  1  0  0  0
 11 47  1  0  0  0
 12 13  1  0  0  0
 12 48  1  0  0  0
 12 49  1  0  0  0
 13 14  1  0  0  0
 13 50  1  0  0  0
 13 51  1  0  0  0
 14 15  1  0  0  0
 14 52  1  0  0  0
 14 53  1  0  0  0
 15 16  1  0  0  0
 15 54  1  0  0  0
 15 55  1  0  0  0
 16 17  1  0  0  0
 16 56  1  0  0  0
 16 57  1  0  0  0
 17 18  1  0  0  0
 17 58  1  0  0  0
 17 59  1  0  0  0
 18 19  1  0  0  0
 18 60  1  0  0  0
 18 61  1  0  0  0
 19 20  1  0  0  0
 19 62  1  0  0  0
 19 63  1  0  0  0
 20 21  1  0  0  0
 20 64  1  0  0  0
 20 65  1  0  0  0
 21 22  1  0  0  0
 21 66  1  0  0  0
 21 67  1  0  0  0
 22 23  1  0  0  0
 22 68  1  0  0  0
 22 69  1  0  0  0
 23 24  2  0  0  0
 23 70  1  0  0  0
 24 71  1  0  0  0
 24 72  1  0  0  0
M  END
>  <i_m_Spin_multiplicity> (1)
1

>  <s_j_Task> (1)
Single Point

>  <s_j_QM_Method> (1)
DFT(b3lyp-d3)

>  <s_j_QM_Basis> (1)
cc-pvtz(-f)

>  <i_j_Number_of_canonical_orbitals> (1)
976

>  <i_j_Geometry_convergence_category> (1)
3

>  <r_j_Gas_Phase_Energy> (1)
-943.872928010182

>  <r_j_Final_Energy> (1)
-943.872928010182

>  <r_j_HOMO> (1)
-0.270178954121775

>  <r_j_LUMO> (1)
-0.0116316014908738

>  <r_j_Polarizability> (1)
299.296194509142

>  <r_j_QM_Dipole_(debye)> (1)
0.306169155838088

>  <r_j_QM_Dipole_X_(debye)> (1)
-0.191559160104772

>  <r_j_QM_Dipole_Y_(debye)> (1)
0.158881004107054

>  <r_j_QM_Dipole_Z_(debye)> (1)
0.178329657377836

>  <r_j_Lowest_Frequency_(cm-1)> (1)
18.7463931525544

>  <r_j_Highest_Frequency_(cm-1)> (1)
3167.72309334148

>  <r_j_2nd_Lowest_Frequency_(cm-1)> (1)
32.8246381034931

>  <i_j_Num_Negative_Frequencies> (1)
0

>  <r_j_Zero_Point_Energy_(kcal/mol)> (1)
425.292768920203

>  <r_j_Entropy_(cal/mol/K)_298.15K_1.00E+00atm> (1)
184.864340774464

>  <r_j_Enthalpy_(kcal/mol)_298.15K_1.00E+00atm> (1)
18.9541534016877

>  <r_j_Free_Energy_(kcal/mol)_298.15K_1.00E+00atm> (1)
-36.1631498002186

>  <r_j_Internal_Energy_(kcal/mol)_298.15K_1.00E+00atm> (1)
18.3616678128605

>  <r_j_Heat_Capacity_(cal/mol/K)_298.15K_1.00E+00atm> (1)
112.188349504615

>  <r_j_ln(Q)_298.15K_1.00E+00atm> (1)
61.0363365492104

>  <r_j_Total_Internal_Energy_(au)_298.15K_1.00E+00atm> (1)
-943.16591965741

>  <r_j_Total_Enthalpy_(au)_298.15K_1.00E+00atm> (1)
-943.164975471518

>  <r_j_Total_Free_Energy_(au)_298.15K_1.00E+00atm> (1)
-943.252810485708

>  <r_lp_tautomer_probability> (1)
1

>  <r_epik_Ionization_Penalty> (1)
  0.0000

>  <r_epik_Ionization_Penalty_Charging> (1)
  0.0000

>  <r_epik_Ionization_Penalty_Neutral> (1)
  0.0000

>  <r_epik_State_Penalty> (1)
  0.0000

>  <r_epik_Charging_Adjusted_Penalty> (1)
0

>  <i_epik_Tot_Q> (1)
0

>  <i_epik_Tot_abs_Q> (1)
0

>  <s_lp_Force_Field> (1)
S-OPLS

>  <r_lp_Energy> (1)
9.00073

>  <b_lp_Chiralities_Consistent> (1)
1

$$$$
