82744_Isopropyl 2-cyanoacrylate
                    3D
 Schrodinger Suite 2021-3.
 19 18  0  0  1  0            999 V2000
   -0.4453   -0.7897   -1.1587 C   0  0  0  0  0  0
   -0.1287    0.0871    0.0412 C   0  0  0  0  0  0
   -0.6505    1.5132   -0.0826 C   0  0  0  0  0  0
    1.3339    0.1183    0.1250 O   0  0  0  0  0  0
    1.8752    0.4180    1.3107 C   0  0  0  0  0  0
    1.2601    0.6612    2.3284 O   0  0  0  0  0  0
    3.3805    0.4165    1.2381 C   0  0  0  0  0  0
    4.0887    0.6969    2.3430 C   0  0  0  0  0  0
    4.0192    0.1168   -0.0112 C   0  0  0  0  0  0
    4.5513   -0.1245   -1.0162 N   0  0  0  0  0  0
   -1.5293   -0.8837   -1.2734 H   0  0  0  0  0  0
   -0.0193   -1.7885   -1.0331 H   0  0  0  0  0  0
   -0.0349   -0.3508   -2.0730 H   0  0  0  0  0  0
   -0.4959   -0.3657    0.9675 H   0  0  0  0  0  0
   -1.7412    1.5038   -0.1732 H   0  0  0  0  0  0
   -0.2322    1.9941   -0.9722 H   0  0  0  0  0  0
   -0.3826    2.0962    0.8010 H   0  0  0  0  0  0
    3.5601    0.9177    3.2641 H   0  0  0  0  0  0
    5.1725    0.7082    2.3399 H   0  0  0  0  0  0
  1  2  1  0  0  0
  1 11  1  0  0  0
  1 12  1  0  0  0
  1 13  1  0  0  0
  2  3  1  0  0  0
  2  4  1  0  0  0
  2 14  1  0  0  0
  3 15  1  0  0  0
  3 16  1  0  0  0
  3 17  1  0  0  0
  4  5  1  0  0  0
  5  6  2  0  0  0
  5  7  1  0  0  0
  7  8  2  0  0  0
  7  9  1  0  0  0
  8 18  1  0  0  0
  8 19  1  0  0  0
  9 10  3  0  0  0
M  END
>  <i_m_Spin_multiplicity> (1)
1

>  <s_j_Task> (1)
Single Point

>  <s_j_QM_Method> (1)
DFT(b3lyp-d3)

>  <s_j_QM_Basis> (1)
cc-pvtz(-f)

>  <i_j_Number_of_canonical_orbitals> (1)
309

>  <i_j_Geometry_convergence_category> (1)
3

>  <r_j_Gas_Phase_Energy> (1)
-477.521681195955

>  <r_j_Final_Energy> (1)
-477.521681195955

>  <r_j_HOMO> (1)
-0.304684961767916

>  <r_j_LUMO> (1)
-0.0973054181271042

>  <r_j_Polarizability> (1)
93.0007938676034

>  <r_j_QM_Dipole_(debye)> (1)
2.41789380738415

>  <r_j_QM_Dipole_X_(debye)> (1)
-1.7998726562272

>  <r_j_QM_Dipole_Y_(debye)> (1)
0.449211462843075

>  <r_j_QM_Dipole_Z_(debye)> (1)
1.5507668898976

>  <r_j_Lowest_Frequency_(cm-1)> (1)
80.9172335169874

>  <r_j_Highest_Frequency_(cm-1)> (1)
3220.65019364326

>  <r_j_2nd_Lowest_Frequency_(cm-1)> (1)
94.8574278771723

>  <i_j_Num_Negative_Frequencies> (1)
0

>  <r_j_Zero_Point_Energy_(kcal/mol)> (1)
94.1956394650483

>  <r_j_Entropy_(cal/mol/K)_298.15K_1.00E+00atm> (1)
97.7415090341392

>  <r_j_Enthalpy_(kcal/mol)_298.15K_1.00E+00atm> (1)
6.97638162771035

>  <r_j_Free_Energy_(kcal/mol)_298.15K_1.00E+00atm> (1)
-22.1652492908183

>  <r_j_Internal_Energy_(kcal/mol)_298.15K_1.00E+00atm> (1)
6.38389603888308

>  <r_j_Heat_Capacity_(cal/mol/K)_298.15K_1.00E+00atm> (1)
37.527111162148

>  <r_j_ln(Q)_298.15K_1.00E+00atm> (1)
37.4106133698385

>  <r_j_Total_Internal_Energy_(au)_298.15K_1.00E+00atm> (1)
-477.361397502541

>  <r_j_Total_Enthalpy_(au)_298.15K_1.00E+00atm> (1)
-477.360453316649

>  <r_j_Total_Free_Energy_(au)_298.15K_1.00E+00atm> (1)
-477.406893461877

>  <r_lp_tautomer_probability> (1)
1

>  <r_epik_Ionization_Penalty> (1)
  0.0000

>  <r_epik_Ionization_Penalty_Charging> (1)
  0.0000

>  <r_epik_Ionization_Penalty_Neutral> (1)
  0.0000

>  <r_epik_State_Penalty> (1)
  0.0000

>  <r_epik_Charging_Adjusted_Penalty> (1)
0

>  <i_epik_Tot_Q> (1)
0

>  <i_epik_Tot_abs_Q> (1)
0

>  <s_lp_Force_Field> (1)
S-OPLS

>  <r_lp_Energy> (1)
1.29534

>  <b_lp_Chiralities_Consistent> (1)
1

>  <s_epik_Chemistry_Notes> (1)
This compound has an ester and may undergo hydrolysis at high or low pH.

$$$$
