8343_Di(2-ethylhexyl)phthalate
                    3D
 Schrodinger Suite 2021-3.
 66 66  0  0  1  0            999 V2000
   -0.8482   -2.9307   -5.3191 C   0  0  0  0  0  0
   -0.9753   -3.3202   -3.8437 C   0  0  0  0  0  0
   -1.6131   -2.2225   -2.9819 C   0  0  0  0  0  0
   -1.7064   -2.6198   -1.5045 C   0  0  0  0  0  0
   -2.4450   -1.6314   -0.5787 C   0  0  0  0  0  0
   -2.4299   -2.1600    0.8710 C   0  0  0  0  0  0
   -3.2679   -1.3513    1.8650 C   0  0  0  0  0  0
   -1.9041   -0.2010   -0.7134 C   0  0  0  0  0  0
   -0.4577   -0.1806   -0.6288 O   0  0  0  0  0  0
    0.1142    0.0620    0.5692 C   0  0  0  0  0  0
   -0.4980    0.4077    1.5617 O   0  0  0  0  0  0
    1.5849   -0.2071    0.5333 C   0  0  0  0  0  0
    2.1086   -1.0643   -0.4441 C   0  0  0  0  0  0
    3.4452   -1.4540   -0.4075 C   0  0  0  0  0  0
    4.2718   -1.0048    0.6214 C   0  0  0  0  0  0
    3.7619   -0.1508    1.5975 C   0  0  0  0  0  0
    2.4313    0.2709    1.5524 C   0  0  0  0  0  0
    2.0169    1.2561    2.6071 C   0  0  0  0  0  0
    2.2481    1.1117    3.7894 O   0  0  0  0  0  0
    1.4719    2.3562    2.0643 O   0  0  0  0  0  0
    1.0205    3.3669    2.9976 C   0  0  0  0  0  0
    0.2257    4.4010    2.2060 C   0  0  0  0  0  0
    1.0717    5.0668    1.1008 C   0  0  0  0  0  0
    2.3642    5.7314    1.5860 C   0  0  0  0  0  0
   -1.0665    3.8085    1.6080 C   0  0  0  0  0  0
   -2.0279    3.1787    2.6224 C   0  0  0  0  0  0
   -3.3804    2.8070    2.0042 C   0  0  0  0  0  0
   -4.3379    2.1598    3.0083 C   0  0  0  0  0  0
   -0.3903   -3.7320   -5.9085 H   0  0  0  0  0  0
   -0.2301   -2.0333   -5.4383 H   0  0  0  0  0  0
   -1.8301   -2.7149   -5.7557 H   0  0  0  0  0  0
   -1.5679   -4.2409   -3.7549 H   0  0  0  0  0  0
    0.0181   -3.5608   -3.4398 H   0  0  0  0  0  0
   -1.0211   -1.3037   -3.0844 H   0  0  0  0  0  0
   -2.6157   -1.9906   -3.3700 H   0  0  0  0  0  0
   -2.2071   -3.5940   -1.4273 H   0  0  0  0  0  0
   -0.6920   -2.7703   -1.1119 H   0  0  0  0  0  0
   -3.4958   -1.5703   -0.9036 H   0  0  0  0  0  0
   -2.7898   -3.1968    0.8488 H   0  0  0  0  0  0
   -1.3930   -2.2093    1.2265 H   0  0  0  0  0  0
   -3.3118   -1.8581    2.8344 H   0  0  0  0  0  0
   -4.2976   -1.2239    1.5098 H   0  0  0  0  0  0
   -2.8332   -0.3639    2.0335 H   0  0  0  0  0  0
   -2.1234    0.2054   -1.7026 H   0  0  0  0  0  0
   -2.3204    0.4659    0.0424 H   0  0  0  0  0  0
    1.4525   -1.4355   -1.2222 H   0  0  0  0  0  0
    3.8345   -2.1193   -1.1723 H   0  0  0  0  0  0
    5.3107   -1.3177    0.6657 H   0  0  0  0  0  0
    4.3920    0.2066    2.4052 H   0  0  0  0  0  0
    0.4197    2.8869    3.7731 H   0  0  0  0  0  0
    1.8957    3.8050    3.4872 H   0  0  0  0  0  0
   -0.0552    5.1751    2.9374 H   0  0  0  0  0  0
    1.3134    4.3100    0.3449 H   0  0  0  0  0  0
    0.4455    5.8156    0.5994 H   0  0  0  0  0  0
    2.8477    6.2823    0.7730 H   0  0  0  0  0  0
    3.0863    4.9945    1.9522 H   0  0  0  0  0  0
    2.1689    6.4412    2.3985 H   0  0  0  0  0  0
   -1.5872    4.6104    1.0666 H   0  0  0  0  0  0
   -0.7953    3.0515    0.8625 H   0  0  0  0  0  0
   -1.5781    2.2713    3.0406 H   0  0  0  0  0  0
   -2.1920    3.8718    3.4611 H   0  0  0  0  0  0
   -3.8467    3.7038    1.5733 H   0  0  0  0  0  0
   -3.2105    2.1204    1.1645 H   0  0  0  0  0  0
   -5.2885    1.8841    2.5396 H   0  0  0  0  0  0
   -4.5591    2.8430    3.8365 H   0  0  0  0  0  0
   -3.9020    1.2514    3.4376 H   0  0  0  0  0  0
  1  2  1  0  0  0
  1 29  1  0  0  0
  1 30  1  0  0  0
  1 31  1  0  0  0
  2  3  1  0  0  0
  2 32  1  0  0  0
  2 33  1  0  0  0
  3  4  1  0  0  0
  3 34  1  0  0  0
  3 35  1  0  0  0
  4  5  1  0  0  0
  4 36  1  0  0  0
  4 37  1  0  0  0
  5  6  1  0  0  0
  5  8  1  0  0  0
  5 38  1  0  0  0
  6  7  1  0  0  0
  6 39  1  0  0  0
  6 40  1  0  0  0
  7 41  1  0  0  0
  7 42  1  0  0  0
  7 43  1  0  0  0
  8  9  1  0  0  0
  8 44  1  0  0  0
  8 45  1  0  0  0
  9 10  1  0  0  0
 10 11  2  0  0  0
 10 12  1  0  0  0
 12 17  1  0  0  0
 12 13  2  0  0  0
 13 14  1  0  0  0
 13 46  1  0  0  0
 14 15  2  0  0  0
 14 47  1  0  0  0
 15 16  1  0  0  0
 15 48  1  0  0  0
 16 17  2  0  0  0
 16 49  1  0  0  0
 17 18  1  0  0  0
 18 19  2  0  0  0
 18 20  1  0  0  0
 20 21  1  0  0  0
 21 22  1  0  0  0
 21 50  1  0  0  0
 21 51  1  0  0  0
 22 23  1  0  0  0
 22 25  1  0  0  0
 22 52  1  0  0  0
 23 24  1  0  0  0
 23 53  1  0  0  0
 23 54  1  0  0  0
 24 55  1  0  0  0
 24 56  1  0  0  0
 24 57  1  0  0  0
 25 26  1  0  0  0
 25 58  1  0  0  0
 25 59  1  0  0  0
 26 27  1  0  0  0
 26 60  1  0  0  0
 26 61  1  0  0  0
 27 28  1  0  0  0
 27 62  1  0  0  0
 27 63  1  0  0  0
 28 64  1  0  0  0
 28 65  1  0  0  0
 28 66  1  0  0  0
M  END
>  <i_m_Spin_multiplicity> (1)
1

>  <s_j_Task> (1)
Single Point

>  <s_j_QM_Method> (1)
DFT(b3lyp-d3)

>  <s_j_QM_Basis> (1)
cc-pvtz(-f)

>  <i_j_Number_of_canonical_orbitals> (1)
975

>  <i_j_Geometry_convergence_category> (1)
3

>  <r_j_Gas_Phase_Energy> (1)
-1238.87646481014

>  <r_j_Final_Energy> (1)
-1238.87646481014

>  <r_j_HOMO> (1)
-0.270723102747601

>  <r_j_LUMO> (1)
-0.0725875478599074

>  <r_j_Polarizability> (1)
296.723559171424

>  <r_j_QM_Dipole_(debye)> (1)
3.48129637663557

>  <r_j_QM_Dipole_X_(debye)> (1)
-0.00371550051822151

>  <r_j_QM_Dipole_Y_(debye)> (1)
-0.683426198588867

>  <r_j_QM_Dipole_Z_(debye)> (1)
-3.41355229755078

>  <r_j_Lowest_Frequency_(cm-1)> (1)
29.2452175570792

>  <r_j_Highest_Frequency_(cm-1)> (1)
3176.77571163813

>  <r_j_2nd_Lowest_Frequency_(cm-1)> (1)
29.9599288609006

>  <i_j_Num_Negative_Frequencies> (1)
0

>  <r_j_Zero_Point_Energy_(kcal/mol)> (1)
366.761842818784

>  <r_j_Entropy_(cal/mol/K)_298.15K_1.00E+00atm> (1)
180.971986309124

>  <r_j_Enthalpy_(kcal/mol)_298.15K_1.00E+00atm> (1)
18.9191641817759

>  <r_j_Free_Energy_(kcal/mol)_298.15K_1.00E+00atm> (1)
-35.0376335362895

>  <r_j_Internal_Energy_(kcal/mol)_298.15K_1.00E+00atm> (1)
18.3266785929487

>  <r_j_Heat_Capacity_(cal/mol/K)_298.15K_1.00E+00atm> (1)
114.433240644158

>  <r_j_ln(Q)_298.15K_1.00E+00atm> (1)
59.1366848358972

>  <r_j_Total_Internal_Energy_(au)_298.15K_1.00E+00atm> (1)
-1238.26278718482

>  <r_j_Total_Enthalpy_(au)_298.15K_1.00E+00atm> (1)
-1238.26184299893

>  <r_j_Total_Free_Energy_(au)_298.15K_1.00E+00atm> (1)
-1238.3478286299

>  <r_lp_tautomer_probability> (1)
1

>  <r_epik_Ionization_Penalty> (1)
  0.0000

>  <r_epik_Ionization_Penalty_Charging> (1)
  0.0000

>  <r_epik_Ionization_Penalty_Neutral> (1)
  0.0000

>  <r_epik_State_Penalty> (1)
  0.0000

>  <r_epik_Charging_Adjusted_Penalty> (1)
0

>  <i_epik_Tot_Q> (1)
0

>  <i_epik_Tot_abs_Q> (1)
0

>  <s_lp_Force_Field> (1)
S-OPLS

>  <r_lp_Energy> (1)
20.221632

>  <b_lp_Chiralities_Consistent> (1)
1

>  <s_epik_Chemistry_Notes> (1)
This compound has an ester and may undergo hydrolysis at high or low pH.

$$$$
