8357_3,4,5-Trimethoxybenzoic acid
                    3D
 Schrodinger Suite 2021-3.
 26 26  0  0  1  0            999 V2000
   -0.6940    1.1763    0.0465 C   0  0  0  0  0  0
    0.0443   -0.0285    0.0224 O   0  0  0  0  0  0
    1.4204    0.0883   -0.0060 C   0  0  0  0  0  0
    2.1189    1.2968   -0.0081 C   0  0  0  0  0  0
    3.5159    1.2980   -0.0130 C   0  0  0  0  0  0
    4.2155    0.0888   -0.0085 C   0  0  0  0  0  0
    3.5204   -1.1216   -0.0064 C   0  0  0  0  0  0
    2.1165   -1.1310   -0.0218 C   0  0  0  0  0  0
    1.4244   -2.3321   -0.0690 O   0  0  0  0  0  0
    1.1270   -2.8462    1.2211 C   0  0  0  0  0  0
    4.1095   -2.3708    0.0219 O   0  0  0  0  0  0
    5.5221   -2.4053    0.0462 C   0  0  0  0  0  0
    4.2946    2.6493   -0.0125 C   0  0  0  0  0  0
    5.5463    2.5398   -0.0081 O   0  0  0  0  0  0
    3.5721    3.6774   -0.0155 O   0  5  0  0  0  0
   -1.7486    0.8868    0.0708 H   0  0  0  0  0  0
   -0.5090    1.7910   -0.8453 H   0  0  0  0  0  0
   -0.4649    1.7841    0.9331 H   0  0  0  0  0  0
    1.6392    2.2687   -0.0031 H   0  0  0  0  0  0
    5.2970    0.1614   -0.0042 H   0  0  0  0  0  0
    0.5856   -3.7870    1.0734 H   0  0  0  0  0  0
    0.4918   -2.1533    1.7901 H   0  0  0  0  0  0
    2.0442   -3.0469    1.7919 H   0  0  0  0  0  0
    5.8007   -3.4628    0.0707 H   0  0  0  0  0  0
    5.9328   -1.9022    0.9329 H   0  0  0  0  0  0
    5.9612   -1.9369   -0.8455 H   0  0  0  0  0  0
  1  2  1  0  0  0
  1 16  1  0  0  0
  1 17  1  0  0  0
  1 18  1  0  0  0
  2  3  1  0  0  0
  3  8  1  0  0  0
  3  4  2  0  0  0
  4  5  1  0  0  0
  4 19  1  0  0  0
  5  6  2  0  0  0
  5 13  1  0  0  0
  6  7  1  0  0  0
  6 20  1  0  0  0
  7  8  2  0  0  0
  7 11  1  0  0  0
  8  9  1  0  0  0
  9 10  1  0  0  0
 10 21  1  0  0  0
 10 22  1  0  0  0
 10 23  1  0  0  0
 11 12  1  0  0  0
 12 24  1  0  0  0
 12 25  1  0  0  0
 12 26  1  0  0  0
 13 14  2  0  0  0
 13 15  1  0  0  0
M  END
>  <i_m_Spin_multiplicity> (1)
1

>  <s_j_Task> (1)
Single Point

>  <s_j_QM_Method> (1)
DFT(b3lyp-d3)

>  <s_j_QM_Basis> (1)
cc-pvtz(-f)

>  <i_j_Number_of_canonical_orbitals> (1)
438

>  <i_j_Geometry_convergence_category> (1)
0

>  <r_j_Gas_Phase_Energy> (1)
-764.109691851676

>  <r_j_Final_Energy> (1)
-764.109691851676

>  <r_j_HOMO> (1)
-0.0445968693409647

>  <r_j_LUMO> (1)
0.109511542707624

>  <r_j_Polarizability> (1)
141.149306508722

>  <r_j_QM_Dipole_(debye)> (1)
11.4976485739501

>  <r_j_QM_Dipole_X_(debye)> (1)
-5.69299889692107

>  <r_j_QM_Dipole_Y_(debye)> (1)
-9.88112737551594

>  <r_j_QM_Dipole_Z_(debye)> (1)
1.46594954842978

>  <r_j_Lowest_Frequency_(cm-1)> (1)
62.8571740033227

>  <r_j_Highest_Frequency_(cm-1)> (1)
3162.84782940198

>  <r_j_2nd_Lowest_Frequency_(cm-1)> (1)
69.75223414302

>  <i_j_Num_Negative_Frequencies> (1)
0

>  <r_j_Zero_Point_Energy_(kcal/mol)> (1)
124.461362010133

>  <r_j_Entropy_(cal/mol/K)_298.15K_1.00E+00atm> (1)
117.388598414538

>  <r_j_Enthalpy_(kcal/mol)_298.15K_1.00E+00atm> (1)
9.52885769508299

>  <r_j_Free_Energy_(kcal/mol)_298.15K_1.00E+00atm> (1)
-25.4705529222116

>  <r_j_Internal_Energy_(kcal/mol)_298.15K_1.00E+00atm> (1)
8.93637210625571

>  <r_j_Heat_Capacity_(cal/mol/K)_298.15K_1.00E+00atm> (1)
52.9213271672036

>  <r_j_ln(Q)_298.15K_1.00E+00atm> (1)
42.989320588584

>  <r_j_Total_Internal_Energy_(au)_298.15K_1.00E+00atm> (1)
-763.897109029434

>  <r_j_Total_Enthalpy_(au)_298.15K_1.00E+00atm> (1)
-763.896164843541

>  <r_j_Total_Free_Energy_(au)_298.15K_1.00E+00atm> (1)
-763.951939954979

>  <r_epik_Ionization_Penalty> (1)
  0.0012

>  <r_epik_Ionization_Penalty_Charging> (1)
  0.0012

>  <r_epik_Ionization_Penalty_Neutral> (1)
  0.0000

>  <r_epik_State_Penalty> (1)
  0.0008

>  <r_epik_Charging_Adjusted_Penalty> (1)
0.0019137772846315

>  <i_epik_Tot_Q> (1)
-1

>  <i_epik_Tot_abs_Q> (1)
1

>  <s_lp_Force_Field> (1)
S-OPLS

>  <r_lp_Energy> (1)
37.45197

>  <b_lp_Chiralities_Consistent> (1)
1

$$$$
