8411_3,3-Dimethoxybenzidine
                    3D
 Schrodinger Suite 2021-3.
 34 35  0  0  1  0            999 V2000
   -2.2481    3.5701    0.2067 C   0  0  0  0  0  0
   -2.8906    2.3149    0.0694 O   0  0  0  0  0  0
   -2.1049    1.1878   -0.0076 C   0  0  0  0  0  0
   -2.8330   -0.0201   -0.1167 C   0  0  0  0  0  0
   -2.1085   -1.2131   -0.1656 C   0  0  0  0  0  0
   -0.7147   -1.2185   -0.1179 C   0  0  0  0  0  0
    0.0095   -0.0260   -0.0163 C   0  0  0  0  0  0
   -0.7165    1.1809    0.0433 C   0  0  0  0  0  0
    1.4905   -0.0150    0.0279 C   0  0  0  0  0  0
    2.2168    1.0011   -0.6256 C   0  0  0  0  0  0
    3.6050    1.0327   -0.5856 C   0  0  0  0  0  0
    4.3329    0.0401    0.1112 C   0  0  0  0  0  0
    3.6084   -0.9694    0.7489 C   0  0  0  0  0  0
    2.2144   -0.9984    0.7106 C   0  0  0  0  0  0
    5.7248    0.1282    0.1817 N   0  0  0  0  0  0
    4.3900    1.9714   -1.2153 O   0  0  0  0  0  0
    3.7459    2.9870   -1.9646 C   0  0  0  0  0  0
   -4.2248    0.0205   -0.2225 N   0  0  0  0  0  0
   -3.0432    4.3172    0.2428 H   0  0  0  0  0  0
   -1.5914    3.7833   -0.6475 H   0  0  0  0  0  0
   -1.6574    3.6254    1.1311 H   0  0  0  0  0  0
   -2.6505   -2.1507   -0.2623 H   0  0  0  0  0  0
   -0.1848   -2.1626   -0.1921 H   0  0  0  0  0  0
   -0.1751    2.1110    0.1669 H   0  0  0  0  0  0
    1.6758    1.7458   -1.1963 H   0  0  0  0  0  0
    4.1508   -1.7338    1.3001 H   0  0  0  0  0  0
    1.6842   -1.7801    1.2455 H   0  0  0  0  0  0
    6.1944   -0.7601    0.2913 H   0  0  0  0  0  0
    6.1306    0.6901   -0.5546 H   0  0  0  0  0  0
    4.5399    3.6165   -2.3706 H   0  0  0  0  0  0
    3.0878    3.5991   -1.3333 H   0  0  0  0  0  0
    3.1562    2.5695   -2.7920 H   0  0  0  0  0  0
   -4.6940   -0.8049    0.1244 H   0  0  0  0  0  0
   -4.6319    0.8741    0.1356 H   0  0  0  0  0  0
  1  2  1  0  0  0
  1 19  1  0  0  0
  1 20  1  0  0  0
  1 21  1  0  0  0
  2  3  1  0  0  0
  3  8  1  0  0  0
  3  4  2  0  0  0
  4  5  1  0  0  0
  4 18  1  0  0  0
  5  6  2  0  0  0
  5 22  1  0  0  0
  6  7  1  0  0  0
  6 23  1  0  0  0
  7  8  2  0  0  0
  7  9  1  0  0  0
  8 24  1  0  0  0
  9 14  1  0  0  0
  9 10  2  0  0  0
 10 11  1  0  0  0
 10 25  1  0  0  0
 11 12  2  0  0  0
 11 16  1  0  0  0
 12 13  1  0  0  0
 12 15  1  0  0  0
 13 14  2  0  0  0
 13 26  1  0  0  0
 14 27  1  0  0  0
 15 28  1  0  0  0
 15 29  1  0  0  0
 16 17  1  0  0  0
 17 30  1  0  0  0
 17 31  1  0  0  0
 17 32  1  0  0  0
 18 33  1  0  0  0
 18 34  1  0  0  0
M  END
>  <i_m_Spin_multiplicity> (1)
1

>  <s_j_Task> (1)
Single Point

>  <s_j_QM_Method> (1)
DFT(b3lyp-d3)

>  <s_j_QM_Basis> (1)
cc-pvtz(-f)

>  <i_j_Number_of_canonical_orbitals> (1)
545

>  <i_j_Geometry_convergence_category> (1)
3

>  <r_j_Gas_Phase_Energy> (1)
-803.355806485532

>  <r_j_Final_Energy> (1)
-803.355806485532

>  <r_j_HOMO> (1)
-0.174485081043311

>  <r_j_LUMO> (1)
-0.0100575718616148

>  <r_j_Polarizability> (1)
202.450767845537

>  <r_j_QM_Dipole_(debye)> (1)
1.42889995774876

>  <r_j_QM_Dipole_X_(debye)> (1)
-0.00580588376907079

>  <r_j_QM_Dipole_Y_(debye)> (1)
1.37850399641515

>  <r_j_QM_Dipole_Z_(debye)> (1)
-0.376095882502768

>  <r_j_Lowest_Frequency_(cm-1)> (1)
50.006522418642

>  <r_j_Highest_Frequency_(cm-1)> (1)
3611.97576371058

>  <r_j_2nd_Lowest_Frequency_(cm-1)> (1)
69.581637772861

>  <i_j_Num_Negative_Frequencies> (1)
0

>  <r_j_Zero_Point_Energy_(kcal/mol)> (1)
175.371999976973

>  <r_j_Entropy_(cal/mol/K)_298.15K_1.00E+00atm> (1)
124.337469114012

>  <r_j_Enthalpy_(kcal/mol)_298.15K_1.00E+00atm> (1)
10.7152598946414

>  <r_j_Free_Energy_(kcal/mol)_298.15K_1.00E+00atm> (1)
-26.3559565217013

>  <r_j_Internal_Energy_(kcal/mol)_298.15K_1.00E+00atm> (1)
10.1227743058142

>  <r_j_Heat_Capacity_(cal/mol/K)_298.15K_1.00E+00atm> (1)
65.2374618122338

>  <r_j_ln(Q)_298.15K_1.00E+00atm> (1)
44.4837090027261

>  <r_j_Total_Internal_Energy_(au)_298.15K_1.00E+00atm> (1)
-803.060201744646

>  <r_j_Total_Enthalpy_(au)_298.15K_1.00E+00atm> (1)
-803.059257558754

>  <r_j_Total_Free_Energy_(au)_298.15K_1.00E+00atm> (1)
-803.118334302913

>  <r_lp_tautomer_probability> (1)
1

>  <r_epik_Ionization_Penalty> (1)
  0.0041

>  <r_epik_Ionization_Penalty_Charging> (1)
  0.0000

>  <r_epik_Ionization_Penalty_Neutral> (1)
  0.0041

>  <r_epik_State_Penalty> (1)
  0.0000

>  <r_epik_Charging_Adjusted_Penalty> (1)
0

>  <i_epik_Tot_Q> (1)
0

>  <i_epik_Tot_abs_Q> (1)
0

>  <s_lp_Force_Field> (1)
S-OPLS

>  <r_lp_Energy> (1)
31.4274

>  <b_lp_Chiralities_Consistent> (1)
1

$$$$
