8430_Varamid ml 1
                    3D
 Schrodinger Suite 2021-3.
 53 52  0  0  1  0            999 V2000
   -8.6527   -0.3031   -1.3007 C   0  0  0  0  0  0
   -7.1267   -0.4313   -1.2761 C   0  0  0  0  0  0
   -6.4791    0.3024   -0.0954 C   0  0  0  0  0  0
   -4.9520    0.1727   -0.0658 C   0  0  0  0  0  0
   -4.3000    0.9105    1.1116 C   0  0  0  0  0  0
   -2.7792    0.7129    1.2151 C   0  0  0  0  0  0
   -1.9858    1.3162    0.0462 C   0  0  0  0  0  0
   -0.4599    1.2044    0.1924 C   0  0  0  0  0  0
    0.0726   -0.2351    0.1656 C   0  0  0  0  0  0
    1.6033   -0.3054    0.1779 C   0  0  0  0  0  0
    2.1230   -1.7444    0.1600 C   0  0  0  0  0  0
    3.6528   -1.8071    0.1565 C   0  0  0  0  0  0
    4.3300   -0.7879    0.2788 O   0  0  0  0  0  0
    4.2451   -3.0400    0.0140 N   0  0  0  0  0  0
    5.7115   -3.0888   -0.0028 C   0  0  0  0  0  0
    6.2962   -3.0712    1.4145 C   0  0  0  0  0  0
    7.7176   -3.1210    1.3918 O   0  0  0  0  0  0
    3.5126   -4.2956   -0.1093 C   0  0  0  0  0  0
    3.2547   -4.7237   -1.5529 C   0  0  0  0  0  0
    4.5055   -5.0484   -2.1455 O   0  0  0  0  0  0
   -9.0882   -0.8349   -2.1532 H   0  0  0  0  0  0
   -8.9588    0.7471   -1.3710 H   0  0  0  0  0  0
   -9.0977   -0.7152   -0.3876 H   0  0  0  0  0  0
   -6.8474   -1.4933   -1.2377 H   0  0  0  0  0  0
   -6.7096   -0.0423   -2.2151 H   0  0  0  0  0  0
   -6.7543    1.3663   -0.1342 H   0  0  0  0  0  0
   -6.8972   -0.0835    0.8456 H   0  0  0  0  0  0
   -4.6791   -0.8919   -0.0190 H   0  0  0  0  0  0
   -4.5452    0.5480   -1.0139 H   0  0  0  0  0  0
   -4.5242    1.9843    1.0358 H   0  0  0  0  0  0
   -4.7676    0.5683    2.0449 H   0  0  0  0  0  0
   -2.4213    1.1632    2.1513 H   0  0  0  0  0  0
   -2.5681   -0.3619    1.2944 H   0  0  0  0  0  0
   -2.2857    0.8366   -0.8949 H   0  0  0  0  0  0
   -2.2591    2.3759   -0.0522 H   0  0  0  0  0  0
    0.0167    1.7703   -0.6193 H   0  0  0  0  0  0
   -0.1438    1.6897    1.1267 H   0  0  0  0  0  0
   -0.3233   -0.7954    1.0231 H   0  0  0  0  0  0
   -0.3122   -0.7433   -0.7315 H   0  0  0  0  0  0
    2.0131    0.2334   -0.6842 H   0  0  0  0  0  0
    2.0018    0.2070    1.0602 H   0  0  0  0  0  0
    1.7452   -2.2876    1.0381 H   0  0  0  0  0  0
    1.7241   -2.2771   -0.7130 H   0  0  0  0  0  0
    6.0256   -3.9852   -0.5377 H   0  0  0  0  0  0
    6.0752   -2.2155   -0.5520 H   0  0  0  0  0  0
    5.9192   -2.1856    1.9445 H   0  0  0  0  0  0
    5.9677   -3.9590    1.9668 H   0  0  0  0  0  0
    8.0279   -2.2776    1.0363 H   0  0  0  0  0  0
    4.0922   -5.0829    0.3850 H   0  0  0  0  0  0
    2.5583   -4.2314    0.4184 H   0  0  0  0  0  0
    2.5725   -5.5906   -1.5490 H   0  0  0  0  0  0
    2.7534   -3.9038   -2.0898 H   0  0  0  0  0  0
    4.3790   -5.1526   -3.0963 H   0  0  0  0  0  0
  1  2  1  0  0  0
  1 21  1  0  0  0
  1 22  1  0  0  0
  1 23  1  0  0  0
  2  3  1  0  0  0
  2 24  1  0  0  0
  2 25  1  0  0  0
  3  4  1  0  0  0
  3 26  1  0  0  0
  3 27  1  0  0  0
  4  5  1  0  0  0
  4 28  1  0  0  0
  4 29  1  0  0  0
  5  6  1  0  0  0
  5 30  1  0  0  0
  5 31  1  0  0  0
  6  7  1  0  0  0
  6 32  1  0  0  0
  6 33  1  0  0  0
  7  8  1  0  0  0
  7 34  1  0  0  0
  7 35  1  0  0  0
  8  9  1  0  0  0
  8 36  1  0  0  0
  8 37  1  0  0  0
  9 10  1  0  0  0
  9 38  1  0  0  0
  9 39  1  0  0  0
 10 11  1  0  0  0
 10 40  1  0  0  0
 10 41  1  0  0  0
 11 12  1  0  0  0
 11 42  1  0  0  0
 11 43  1  0  0  0
 12 13  2  0  0  0
 12 14  1  0  0  0
 14 15  1  0  0  0
 14 18  1  0  0  0
 15 16  1  0  0  0
 15 44  1  0  0  0
 15 45  1  0  0  0
 16 17  1  0  0  0
 16 46  1  0  0  0
 16 47  1  0  0  0
 17 48  1  0  0  0
 18 19  1  0  0  0
 18 49  1  0  0  0
 18 50  1  0  0  0
 19 20  1  0  0  0
 19 51  1  0  0  0
 19 52  1  0  0  0
 20 53  1  0  0  0
M  END
>  <i_m_Spin_multiplicity> (1)
1

>  <s_j_Task> (1)
Single Point

>  <s_j_QM_Method> (1)
DFT(b3lyp-d3)

>  <s_j_QM_Basis> (1)
cc-pvtz(-f)

>  <i_j_Number_of_canonical_orbitals> (1)
752

>  <i_j_Geometry_convergence_category> (1)
3

>  <r_j_Gas_Phase_Energy> (1)
-910.381929420425

>  <r_j_Final_Energy> (1)
-910.381929420425

>  <r_j_HOMO> (1)
-0.254276959350336

>  <r_j_LUMO> (1)
-0.00150556521049436

>  <r_j_Polarizability> (1)
215.259280928958

>  <r_j_QM_Dipole_(debye)> (1)
4.29925920141185

>  <r_j_QM_Dipole_X_(debye)> (1)
-3.21155020145589

>  <r_j_QM_Dipole_Y_(debye)> (1)
-2.03484961027067

>  <r_j_QM_Dipole_Z_(debye)> (1)
-2.00722745298942

>  <r_j_Lowest_Frequency_(cm-1)> (1)
24.6195681656229

>  <r_j_Highest_Frequency_(cm-1)> (1)
3783.06458428908

>  <r_j_2nd_Lowest_Frequency_(cm-1)> (1)
28.0346983697834

>  <i_j_Num_Negative_Frequencies> (1)
0

>  <r_j_Zero_Point_Energy_(kcal/mol)> (1)
302.859493904088

>  <r_j_Entropy_(cal/mol/K)_298.15K_1.00E+00atm> (1)
159.108984436285

>  <r_j_Enthalpy_(kcal/mol)_298.15K_1.00E+00atm> (1)
15.332445451859

>  <r_j_Free_Energy_(kcal/mol)_298.15K_1.00E+00atm> (1)
-32.1058982578193

>  <r_j_Internal_Energy_(kcal/mol)_298.15K_1.00E+00atm> (1)
14.7399598630317

>  <r_j_Heat_Capacity_(cal/mol/K)_298.15K_1.00E+00atm> (1)
89.0762422853663

>  <r_j_ln(Q)_298.15K_1.00E+00atm> (1)
54.1884880632583

>  <r_j_Total_Internal_Energy_(au)_298.15K_1.00E+00atm> (1)
-909.875802471031

>  <r_j_Total_Enthalpy_(au)_298.15K_1.00E+00atm> (1)
-909.874858285139

>  <r_j_Total_Free_Energy_(au)_298.15K_1.00E+00atm> (1)
-909.950456098363

>  <r_lp_tautomer_probability> (1)
1

>  <r_epik_Ionization_Penalty> (1)
  0.0000

>  <r_epik_Ionization_Penalty_Charging> (1)
  0.0000

>  <r_epik_Ionization_Penalty_Neutral> (1)
  0.0000

>  <r_epik_State_Penalty> (1)
  0.0000

>  <r_epik_Charging_Adjusted_Penalty> (1)
0

>  <i_epik_Tot_Q> (1)
0

>  <i_epik_Tot_abs_Q> (1)
0

>  <s_lp_Force_Field> (1)
S-OPLS

>  <r_lp_Energy> (1)
15.342973

>  <b_lp_Chiralities_Consistent> (1)
1

$$$$
