8441_Dimethyl terephthalate
                    3D
 Schrodinger Suite 2021-3.
 24 24  0  0  1  0            999 V2000
   -2.0067   -1.1791    0.0002 C   0  0  0  0  0  0
   -0.5690   -1.1792   -0.0001 O   0  0  0  0  0  0
    0.0022    0.0462   -0.0001 C   0  0  0  0  0  0
   -0.6392    1.0784    0.0000 O   0  0  0  0  0  0
    1.4936   -0.0184   -0.0001 C   0  0  0  0  0  0
    2.1942   -1.2318   -0.0002 C   0  0  0  0  0  0
    3.5855   -1.2318   -0.0001 C   0  0  0  0  0  0
    4.2861   -0.0183    0.0000 C   0  0  0  0  0  0
    3.5840    1.1942    0.0001 C   0  0  0  0  0  0
    2.1957    1.1942    0.0000 C   0  0  0  0  0  0
    5.7774    0.0462    0.0000 C   0  0  0  0  0  0
    6.4189    1.0784   -0.0001 O   0  0  0  0  0  0
    6.3486   -1.1792    0.0002 O   0  0  0  0  0  0
    7.7864   -1.1791    0.0002 C   0  0  0  0  0  0
   -2.3011   -2.2284    0.0002 H   0  0  0  0  0  0
   -2.3907   -0.6700   -0.8877 H   0  0  0  0  0  0
   -2.3903   -0.6701    0.8883 H   0  0  0  0  0  0
    1.6456   -2.1662   -0.0003 H   0  0  0  0  0  0
    4.1342   -2.1661   -0.0002 H   0  0  0  0  0  0
    4.1470    2.1211    0.0002 H   0  0  0  0  0  0
    1.6327    2.1211    0.0000 H   0  0  0  0  0  0
    8.0808   -2.2284    0.0003 H   0  0  0  0  0  0
    8.1702   -0.6699    0.8881 H   0  0  0  0  0  0
    8.1702   -0.6702   -0.8879 H   0  0  0  0  0  0
  1  2  1  0  0  0
  1 15  1  0  0  0
  1 16  1  0  0  0
  1 17  1  0  0  0
  2  3  1  0  0  0
  3  4  2  0  0  0
  3  5  1  0  0  0
  5 10  1  0  0  0
  5  6  2  0  0  0
  6  7  1  0  0  0
  6 18  1  0  0  0
  7  8  2  0  0  0
  7 19  1  0  0  0
  8  9  1  0  0  0
  8 11  1  0  0  0
  9 10  2  0  0  0
  9 20  1  0  0  0
 10 21  1  0  0  0
 11 12  2  0  0  0
 11 13  1  0  0  0
 13 14  1  0  0  0
 14 22  1  0  0  0
 14 23  1  0  0  0
 14 24  1  0  0  0
M  END
>  <i_m_Spin_multiplicity> (1)
1

>  <s_j_Task> (1)
Single Point

>  <s_j_QM_Method> (1)
DFT(b3lyp-d3)

>  <s_j_QM_Basis> (1)
cc-pvtz(-f)

>  <i_j_Number_of_canonical_orbitals> (1)
405

>  <i_j_Geometry_convergence_category> (1)
3

>  <r_j_Gas_Phase_Energy> (1)
-688.257324411997

>  <r_j_Final_Energy> (1)
-688.257324411997

>  <r_j_HOMO> (1)
-0.275842824490056

>  <r_j_LUMO> (1)
-0.082733884607327

>  <r_j_Polarizability> (1)
132.676297436844

>  <r_j_QM_Dipole_(debye)> (1)
3.41174667744169

>  <r_j_QM_Dipole_X_(debye)> (1)
-0.000246766384444066

>  <r_j_QM_Dipole_Y_(debye)> (1)
-3.411746658158

>  <r_j_QM_Dipole_Z_(debye)> (1)
0.000265872961399198

>  <r_j_Lowest_Frequency_(cm-1)> (1)
68.92280052476

>  <r_j_Highest_Frequency_(cm-1)> (1)
3176.50152621622

>  <r_j_2nd_Lowest_Frequency_(cm-1)> (1)
75.1606917042873

>  <i_j_Num_Negative_Frequencies> (1)
0

>  <r_j_Zero_Point_Energy_(kcal/mol)> (1)
116.646472684574

>  <r_j_Entropy_(cal/mol/K)_298.15K_1.00E+00atm> (1)
108.782451030524

>  <r_j_Enthalpy_(kcal/mol)_298.15K_1.00E+00atm> (1)
8.48827624308187

>  <r_j_Free_Energy_(kcal/mol)_298.15K_1.00E+00atm> (1)
-23.9452115316689

>  <r_j_Internal_Energy_(kcal/mol)_298.15K_1.00E+00atm> (1)
7.89579065425459

>  <r_j_Heat_Capacity_(cal/mol/K)_298.15K_1.00E+00atm> (1)
47.0558356119746

>  <r_j_ln(Q)_298.15K_1.00E+00atm> (1)
40.4148421214168

>  <r_j_Total_Internal_Energy_(au)_298.15K_1.00E+00atm> (1)
-688.058853680808

>  <r_j_Total_Enthalpy_(au)_298.15K_1.00E+00atm> (1)
-688.057909494916

>  <r_j_Total_Free_Energy_(au)_298.15K_1.00E+00atm> (1)
-688.109595547996

>  <r_lp_tautomer_probability> (1)
1

>  <r_epik_Ionization_Penalty> (1)
  0.0000

>  <r_epik_Ionization_Penalty_Charging> (1)
  0.0000

>  <r_epik_Ionization_Penalty_Neutral> (1)
  0.0000

>  <r_epik_State_Penalty> (1)
  0.0000

>  <r_epik_Charging_Adjusted_Penalty> (1)
0

>  <i_epik_Tot_Q> (1)
0

>  <i_epik_Tot_abs_Q> (1)
0

>  <s_lp_Force_Field> (1)
S-OPLS

>  <r_lp_Energy> (1)
6.80294

>  <b_lp_Chiralities_Consistent> (1)
1

>  <s_epik_Chemistry_Notes> (1)
This compound has an ester and may undergo hydrolysis at high or low pH.

$$$$
