8447_2,2'-Dithiobisbenzothiazole
                    3D
 Schrodinger Suite 2021-3.
 28 31  0  0  1  0            999 V2000
    0.9389    4.8522   -1.3272 C   0  0  0  0  0  0
    0.0408    4.4237   -2.3228 C   0  0  0  0  0  0
   -0.6003    3.1932   -2.2340 C   0  0  0  0  0  0
   -0.3208    2.3852   -1.1282 C   0  0  0  0  0  0
    0.5786    2.8097   -0.1143 C   0  0  0  0  0  0
    1.2108    4.0577   -0.2234 C   0  0  0  0  0  0
    0.7746    1.9183    0.9219 N   0  0  0  0  0  0
    0.0895    0.8387    0.7358 C   0  0  0  0  0  0
   -0.9047    0.7845   -0.7444 S   0  0  0  0  0  0
    0.2130   -0.6430    1.7005 S   0  0  0  0  0  0
    2.2359   -1.2191    1.2362 S   0  0  0  0  0  0
    2.1679   -1.0681   -0.5265 C   0  0  0  0  0  0
    2.4697    0.0426   -1.1245 N   0  0  0  0  0  0
    2.1987   -0.0300   -2.4759 C   0  0  0  0  0  0
    2.3615    1.0356   -3.3740 C   0  0  0  0  0  0
    2.0084    0.8471   -4.7015 C   0  0  0  0  0  0
    1.4987   -0.3881   -5.1438 C   0  0  0  0  0  0
    1.3237   -1.4551   -4.2684 C   0  0  0  0  0  0
    1.6703   -1.2672   -2.9276 C   0  0  0  0  0  0
    1.5234   -2.3612   -1.5685 S   0  0  0  0  0  0
    1.4249    5.8178   -1.4281 H   0  0  0  0  0  0
   -0.1527    5.0635   -3.1788 H   0  0  0  0  0  0
   -1.2851    2.8641   -3.0081 H   0  0  0  0  0  0
    1.9026    4.3689    0.5517 H   0  0  0  0  0  0
    2.7394    1.9833   -3.0060 H   0  0  0  0  0  0
    2.1203    1.6622   -5.4098 H   0  0  0  0  0  0
    1.2282   -0.5101   -6.1885 H   0  0  0  0  0  0
    0.9183   -2.3993   -4.6161 H   0  0  0  0  0  0
  1  6  1  0  0  0
  1  2  2  0  0  0
  1 21  1  0  0  0
  2  3  1  0  0  0
  2 22  1  0  0  0
  3  4  2  0  0  0
  3 23  1  0  0  0
  4  9  1  0  0  0
  4  5  1  0  0  0
  5  6  2  0  0  0
  5  7  1  0  0  0
  6 24  1  0  0  0
  7  8  2  0  0  0
  8  9  1  0  0  0
  8 10  1  0  0  0
 10 11  1  0  0  0
 11 12  1  0  0  0
 12 20  1  0  0  0
 12 13  2  0  0  0
 13 14  1  0  0  0
 14 19  1  0  0  0
 14 15  2  0  0  0
 15 16  1  0  0  0
 15 25  1  0  0  0
 16 17  2  0  0  0
 16 26  1  0  0  0
 17 18  1  0  0  0
 17 27  1  0  0  0
 18 19  2  0  0  0
 18 28  1  0  0  0
 19 20  1  0  0  0
M  END
>  <i_m_Spin_multiplicity> (1)
1

>  <s_j_Task> (1)
Single Point

>  <s_j_QM_Method> (1)
DFT(b3lyp-d3)

>  <s_j_QM_Basis> (1)
cc-pvtz(-f)

>  <i_j_Number_of_canonical_orbitals> (1)
540

>  <i_j_Geometry_convergence_category> (1)
4

>  <r_j_Gas_Phase_Energy> (1)
-2240.92580290053

>  <r_j_Final_Energy> (1)
-2240.92580290053

>  <r_j_HOMO> (1)
-0.227787587651929

>  <r_j_LUMO> (1)
-0.0926801232064291

>  <r_j_Polarizability> (1)
242.436300453642

>  <r_j_QM_Dipole_(debye)> (1)
4.21813913597677

>  <r_j_QM_Dipole_X_(debye)> (1)
-0.974234497545307

>  <r_j_QM_Dipole_Y_(debye)> (1)
0.757536804341374

>  <r_j_QM_Dipole_Z_(debye)> (1)
-4.03357197832389

>  <r_j_Lowest_Frequency_(cm-1)> (1)
30.3345582250704

>  <r_j_Highest_Frequency_(cm-1)> (1)
3162.89153355073

>  <r_j_2nd_Lowest_Frequency_(cm-1)> (1)
56.3856446132247

>  <i_j_Num_Negative_Frequencies> (1)
0

>  <r_j_Zero_Point_Energy_(kcal/mol)> (1)
117.195557313702

>  <r_j_Entropy_(cal/mol/K)_298.15K_1.00E+00atm> (1)
125.637304078509

>  <r_j_Enthalpy_(kcal/mol)_298.15K_1.00E+00atm> (1)
10.567494039434

>  <r_j_Free_Energy_(kcal/mol)_298.15K_1.00E+00atm> (1)
-26.8912681715736

>  <r_j_Internal_Energy_(kcal/mol)_298.15K_1.00E+00atm> (1)
9.97500845060673

>  <r_j_Heat_Capacity_(cal/mol/K)_298.15K_1.00E+00atm> (1)
63.5357363917761

>  <r_j_ln(Q)_298.15K_1.00E+00atm> (1)
45.3872105561256

>  <r_j_Total_Internal_Energy_(au)_298.15K_1.00E+00atm> (1)
-2240.72314370279

>  <r_j_Total_Enthalpy_(au)_298.15K_1.00E+00atm> (1)
-2240.7221995169

>  <r_j_Total_Free_Energy_(au)_298.15K_1.00E+00atm> (1)
-2240.7818938546

>  <r_lp_tautomer_probability> (1)
1

>  <r_epik_Ionization_Penalty> (1)
  0.0000

>  <r_epik_Ionization_Penalty_Charging> (1)
  0.0000

>  <r_epik_Ionization_Penalty_Neutral> (1)
  0.0000

>  <r_epik_State_Penalty> (1)
  0.0000

>  <r_epik_Charging_Adjusted_Penalty> (1)
0

>  <i_epik_Tot_Q> (1)
0

>  <i_epik_Tot_abs_Q> (1)
0

>  <s_lp_Force_Field> (1)
S-OPLS

>  <r_lp_Energy> (1)
10.1724

>  <b_lp_Chiralities_Consistent> (1)
1

$$$$
