8452_Cyclopentanone
                    3D
 Schrodinger Suite 2021-3.
 14 14  0  0  1  0            999 V2000
   -2.8892    0.9686   -0.3641 C   0  0  0  0  0  0
   -2.0864    0.2604   -1.4807 C   0  0  0  0  0  0
   -1.2797    1.3949   -2.1308 C   0  0  0  0  0  0
   -2.1590    2.6416   -1.9715 C   0  0  0  0  0  0
   -1.9859    3.7063   -2.5221 O   0  0  0  0  0  0
   -3.2947    2.3093   -0.9955 C   0  0  0  0  0  0
   -2.2372    1.1468    0.4998 H   0  0  0  0  0  0
   -3.7399    0.3774   -0.0150 H   0  0  0  0  0  0
   -1.4636   -0.5544   -1.1019 H   0  0  0  0  0  0
   -2.7794   -0.1704   -2.2138 H   0  0  0  0  0  0
   -0.3473    1.5848   -1.5812 H   0  0  0  0  0  0
   -1.0081    1.2435   -3.1789 H   0  0  0  0  0  0
   -4.2125    2.2065   -1.5909 H   0  0  0  0  0  0
   -3.4578    3.1333   -0.2958 H   0  0  0  0  0  0
  1  6  1  0  0  0
  1  2  1  0  0  0
  1  7  1  0  0  0
  1  8  1  0  0  0
  2  3  1  0  0  0
  2  9  1  0  0  0
  2 10  1  0  0  0
  3  4  1  0  0  0
  3 11  1  0  0  0
  3 12  1  0  0  0
  4  5  2  0  0  0
  4  6  1  0  0  0
  6 13  1  0  0  0
  6 14  1  0  0  0
M  END
>  <i_m_Spin_multiplicity> (1)
1

>  <s_j_Task> (1)
Single Point

>  <s_j_QM_Method> (1)
DFT(b3lyp-d3)

>  <s_j_QM_Basis> (1)
cc-pvtz(-f)

>  <i_j_Number_of_canonical_orbitals> (1)
208

>  <i_j_Geometry_convergence_category> (1)
0

>  <r_j_Gas_Phase_Energy> (1)
-270.674565751172

>  <r_j_Final_Energy> (1)
-270.674565751172

>  <r_j_HOMO> (1)
-0.223160641934249

>  <r_j_LUMO> (1)
-0.00483784946301594

>  <r_j_Polarizability> (1)
57.6012949538561

>  <r_j_QM_Dipole_(debye)> (1)
3.06432428617059

>  <r_j_QM_Dipole_X_(debye)> (1)
-0.437846036569459

>  <r_j_QM_Dipole_Y_(debye)> (1)
-2.69390270070431

>  <r_j_QM_Dipole_Z_(debye)> (1)
1.39329193574546

>  <r_j_Lowest_Frequency_(cm-1)> (1)
141.206893180315

>  <r_j_Highest_Frequency_(cm-1)> (1)
3059.2920276122

>  <r_j_2nd_Lowest_Frequency_(cm-1)> (1)
271.277369469753

>  <i_j_Num_Negative_Frequencies> (1)
0

>  <r_j_Zero_Point_Energy_(kcal/mol)> (1)
75.6691304981171

>  <r_j_Entropy_(cal/mol/K)_298.15K_1.00E+00atm> (1)
73.7759437875187

>  <r_j_Enthalpy_(kcal/mol)_298.15K_1.00E+00atm> (1)
3.97254980487914

>  <r_j_Free_Energy_(kcal/mol)_298.15K_1.00E+00atm> (1)
-18.0237478353696

>  <r_j_Internal_Energy_(kcal/mol)_298.15K_1.00E+00atm> (1)
3.38006421605186

>  <r_j_Heat_Capacity_(cal/mol/K)_298.15K_1.00E+00atm> (1)
20.395059020667

>  <r_j_ln(Q)_298.15K_1.00E+00atm> (1)
30.4205674791931

>  <r_j_Total_Internal_Energy_(au)_298.15K_1.00E+00atm> (1)
-270.548592840016

>  <r_j_Total_Enthalpy_(au)_298.15K_1.00E+00atm> (1)
-270.547648654123

>  <r_j_Total_Free_Energy_(au)_298.15K_1.00E+00atm> (1)
-270.582701985893

>  <r_lp_tautomer_probability> (1)
1

>  <r_epik_Ionization_Penalty> (1)
  0.0000

>  <r_epik_Ionization_Penalty_Charging> (1)
  0.0000

>  <r_epik_Ionization_Penalty_Neutral> (1)
  0.0000

>  <r_epik_State_Penalty> (1)
  0.0000

>  <r_epik_Charging_Adjusted_Penalty> (1)
0

>  <i_epik_Tot_Q> (1)
0

>  <i_epik_Tot_abs_Q> (1)
0

>  <s_lp_Force_Field> (1)
S-OPLS

>  <r_lp_Energy> (1)
-0.510463

>  <b_lp_Chiralities_Consistent> (1)
1

$$$$
