8461_2,4-Dinitrotoluene
                    3D
 Schrodinger Suite 2021-3.
 19 19  0  0  1  0            999 V2000
   -0.0230    0.0038   -0.0007 C   0  0  0  0  0  0
    1.4845    0.0182   -0.0004 C   0  0  0  0  0  0
    2.2313    1.1996    0.0000 C   0  0  0  0  0  0
    3.6173    1.2360    0.0003 C   0  0  0  0  0  0
    4.2846    0.0171    0.0001 C   0  0  0  0  0  0
    3.6004   -1.1966   -0.0002 C   0  0  0  0  0  0
    2.2109   -1.1824   -0.0004 C   0  0  0  0  0  0
    5.7576    0.0147    0.0002 N   0  3  1  0  0  0
    6.3225   -1.0777    0.0002 O   0  0  0  0  0  0
    6.3276    1.1044    0.0003 O   0  5  0  0  0  0
    1.5116    2.4902    0.0001 N   0  3  1  0  0  0
    1.2382    2.9721    1.0946 O   0  0  0  0  0  0
    1.2265    2.9658   -1.0942 O   0  5  0  0  0  0
   -0.4573    1.0042   -0.0008 H   0  0  0  0  0  0
   -0.3951   -0.5262    0.8819 H   0  0  0  0  0  0
   -0.3947   -0.5260   -0.8835 H   0  0  0  0  0  0
    4.1692    2.1673    0.0007 H   0  0  0  0  0  0
    4.1611   -2.1227   -0.0003 H   0  0  0  0  0  0
    1.6677   -2.1226   -0.0005 H   0  0  0  0  0  0
  1  2  1  0  0  0
  1 14  1  0  0  0
  1 15  1  0  0  0
  1 16  1  0  0  0
  2  7  1  0  0  0
  2  3  2  0  0  0
  3  4  1  0  0  0
  3 11  1  0  0  0
  4  5  2  0  0  0
  4 17  1  0  0  0
  5  6  1  0  0  0
  5  8  1  0  0  0
  6  7  2  0  0  0
  6 18  1  0  0  0
  7 19  1  0  0  0
  8  9  2  0  0  0
  8 10  1  0  0  0
 11 12  2  0  0  0
 11 13  1  0  0  0
M  END
>  <i_m_Spin_multiplicity> (1)
1

>  <s_j_Task> (1)
Single Point

>  <s_j_QM_Method> (1)
DFT(b3lyp-d3)

>  <s_j_QM_Basis> (1)
cc-pvtz(-f)

>  <i_j_Number_of_canonical_orbitals> (1)
347

>  <i_j_Geometry_convergence_category> (1)
0

>  <r_j_Gas_Phase_Energy> (1)
-680.798574218906

>  <r_j_Final_Energy> (1)
-680.798574218906

>  <r_j_HOMO> (1)
-0.289697169252622

>  <r_j_LUMO> (1)
-0.114374433685835

>  <r_j_Polarizability> (1)
109.864031666843

>  <r_j_QM_Dipole_(debye)> (1)
4.717330646422

>  <r_j_QM_Dipole_X_(debye)> (1)
-3.36693335116402

>  <r_j_QM_Dipole_Y_(debye)> (1)
-3.30408315643609

>  <r_j_QM_Dipole_Z_(debye)> (1)
-0.00165282997807782

>  <r_j_Lowest_Frequency_(cm-1)> (1)
48.1945214652454

>  <r_j_Highest_Frequency_(cm-1)> (1)
3188.76590128476

>  <r_j_2nd_Lowest_Frequency_(cm-1)> (1)
89.7111618268311

>  <i_j_Num_Negative_Frequencies> (1)
0

>  <r_j_Zero_Point_Energy_(kcal/mol)> (1)
82.8611449925565

>  <r_j_Entropy_(cal/mol/K)_298.15K_1.00E+00atm> (1)
102.899256040983

>  <r_j_Enthalpy_(kcal/mol)_298.15K_1.00E+00atm> (1)
7.41565861388366

>  <r_j_Free_Energy_(kcal/mol)_298.15K_1.00E+00atm> (1)
-23.2637545747355

>  <r_j_Internal_Energy_(kcal/mol)_298.15K_1.00E+00atm> (1)
6.82317302505639

>  <r_j_Heat_Capacity_(cal/mol/K)_298.15K_1.00E+00atm> (1)
40.2181837347986

>  <r_j_ln(Q)_298.15K_1.00E+00atm> (1)
39.2646758223811

>  <r_j_Total_Internal_Energy_(au)_298.15K_1.00E+00atm> (1)
-680.655653159854

>  <r_j_Total_Enthalpy_(au)_298.15K_1.00E+00atm> (1)
-680.654708973962

>  <r_j_Total_Free_Energy_(au)_298.15K_1.00E+00atm> (1)
-680.703599731241

>  <r_lp_tautomer_probability> (1)
1

>  <r_epik_Ionization_Penalty> (1)
  0.0000

>  <r_epik_Ionization_Penalty_Charging> (1)
  0.0000

>  <r_epik_Ionization_Penalty_Neutral> (1)
  0.0000

>  <r_epik_State_Penalty> (1)
  0.0000

>  <r_epik_Charging_Adjusted_Penalty> (1)
0

>  <i_epik_Tot_Q> (1)
0

>  <i_epik_Tot_abs_Q> (1)
4

>  <s_lp_Force_Field> (1)
S-OPLS

>  <r_lp_Energy> (1)
19.7542

>  <b_lp_Chiralities_Consistent> (1)
1

$$$$
