8471_Triethylamine
                    3D
 Schrodinger Suite 2021-3.
 23 22  0  0  1  0            999 V2000
   -0.5285    1.5023    0.2069 C   0  0  0  0  0  0
   -0.1247    0.1001   -0.2259 C   0  0  0  0  0  0
    1.3848   -0.1055   -0.1829 N   0  3  1  0  0  0
    2.0822    0.5344   -1.3775 C   0  0  0  0  0  0
    3.5387    0.8660   -1.0853 C   0  0  0  0  0  0
    1.7559   -1.5755   -0.0267 C   0  0  0  0  0  0
    1.5862   -2.0644    1.4047 C   0  0  0  0  0  0
   -1.6178    1.5809    0.1650 H   0  0  0  0  0  0
   -0.1198    2.2822   -0.4406 H   0  0  0  0  0  0
   -0.2248    1.7047    1.2394 H   0  0  0  0  0  0
   -0.5645   -0.6483    0.4344 H   0  0  0  0  0  0
   -0.4293   -0.1283   -1.2504 H   0  0  0  0  0  0
    1.9689   -0.1714   -2.2042 H   0  0  0  0  0  0
    1.5233    1.4382   -1.6227 H   0  0  0  0  0  0
    3.9767    1.3289   -1.9731 H   0  0  0  0  0  0
    4.1375   -0.0172   -0.8486 H   0  0  0  0  0  0
    3.6277    1.5844   -0.2635 H   0  0  0  0  0  0
    1.1268   -2.1203   -0.7350 H   0  0  0  0  0  0
    2.7936   -1.6751   -0.3469 H   0  0  0  0  0  0
    1.8767   -3.1170    1.4512 H   0  0  0  0  0  0
    0.5548   -1.9945    1.7593 H   0  0  0  0  0  0
    2.2354   -1.5146    2.0942 H   0  0  0  0  0  0
    1.7268    0.3780    0.6550 H   0  0  0  0  0  0
  1  2  1  0  0  0
  1  8  1  0  0  0
  1  9  1  0  0  0
  1 10  1  0  0  0
  2  3  1  0  0  0
  2 11  1  0  0  0
  2 12  1  0  0  0
  3  4  1  0  0  0
  3  6  1  0  0  0
  3 23  1  0  0  0
  4  5  1  0  0  0
  4 13  1  0  0  0
  4 14  1  0  0  0
  5 15  1  0  0  0
  5 16  1  0  0  0
  5 17  1  0  0  0
  6  7  1  0  0  0
  6 18  1  0  0  0
  6 19  1  0  0  0
  7 20  1  0  0  0
  7 21  1  0  0  0
  7 22  1  0  0  0
M  END
>  <i_m_Spin_multiplicity> (1)
1

>  <s_j_Task> (1)
Single Point

>  <s_j_QM_Method> (1)
DFT(b3lyp-d3)

>  <s_j_QM_Basis> (1)
cc-pvtz(-f)

>  <i_j_Number_of_canonical_orbitals> (1)
305

>  <i_j_Geometry_convergence_category> (1)
3

>  <r_j_Gas_Phase_Energy> (1)
-292.925273127843

>  <r_j_Final_Energy> (1)
-292.925273127843

>  <r_j_HOMO> (1)
-0.514299724001236

>  <r_j_LUMO> (1)
-0.140366648423623

>  <r_j_Polarizability> (1)
77.4458179429734

>  <r_j_QM_Dipole_(debye)> (1)
0.150382772489567

>  <r_j_QM_Dipole_X_(debye)> (1)
-0.0506583736247507

>  <r_j_QM_Dipole_Y_(debye)> (1)
-0.0706520359849852

>  <r_j_QM_Dipole_Z_(debye)> (1)
-0.122706956830167

>  <r_j_Lowest_Frequency_(cm-1)> (1)
127.366169764511

>  <r_j_Highest_Frequency_(cm-1)> (1)
3368.91298062166

>  <r_j_2nd_Lowest_Frequency_(cm-1)> (1)
127.780221304189

>  <i_j_Num_Negative_Frequencies> (1)
0

>  <r_j_Zero_Point_Energy_(kcal/mol)> (1)
138.543396575913

>  <r_j_Entropy_(cal/mol/K)_298.15K_1.00E+00atm> (1)
89.7117115101403

>  <r_j_Enthalpy_(kcal/mol)_298.15K_1.00E+00atm> (1)
6.19248748017883

>  <r_j_Free_Energy_(kcal/mol)_298.15K_1.00E+00atm> (1)
-20.5550593065695

>  <r_j_Internal_Energy_(kcal/mol)_298.15K_1.00E+00atm> (1)
5.60000189135156

>  <r_j_Heat_Capacity_(cal/mol/K)_298.15K_1.00E+00atm> (1)
33.6654259815466

>  <r_j_ln(Q)_298.15K_1.00E+00atm> (1)
34.692927041913

>  <r_j_Total_Internal_Energy_(au)_298.15K_1.00E+00atm> (1)
-292.695565999332

>  <r_j_Total_Enthalpy_(au)_298.15K_1.00E+00atm> (1)
-292.694621813439

>  <r_j_Total_Free_Energy_(au)_298.15K_1.00E+00atm> (1)
-292.737246742728

>  <r_epik_Ionization_Penalty> (1)
  0.0019

>  <r_epik_Ionization_Penalty_Charging> (1)
  0.0019

>  <r_epik_Ionization_Penalty_Neutral> (1)
  0.0000

>  <r_epik_State_Penalty> (1)
  0.0013

>  <r_epik_Charging_Adjusted_Penalty> (1)
0.00314271769268146

>  <i_epik_Tot_Q> (1)
1

>  <i_epik_Tot_abs_Q> (1)
1

>  <s_lp_Force_Field> (1)
S-OPLS

>  <r_lp_Energy> (1)
13.671257

>  <b_lp_Chiralities_Consistent> (1)
1

$$$$
