8496_Isophthalic acid
                    3D
 Schrodinger Suite 2021-3.
 16 16  0  0  1  0            999 V2000
   -2.0795    1.1864    0.0001 C   0  0  0  0  0  0
   -0.6824    1.1940    0.0001 C   0  0  0  0  0  0
    0.0387   -0.0085    0.0001 C   0  0  0  0  0  0
   -0.6823   -1.2140    0.0000 C   0  0  0  0  0  0
   -2.0866   -1.2460    0.0000 C   0  0  0  0  0  0
   -2.7754   -0.0250    0.0000 C   0  0  0  0  0  0
   -2.8913   -2.5781    0.0000 C   0  0  0  0  0  0
   -4.1508   -2.4567   -0.0001 O   0  0  0  0  0  0
   -2.2152   -3.6394    0.0001 O   0  5  0  0  0  0
    1.5940    0.0329    0.0000 C   0  0  0  0  0  0
    2.1828   -1.0791    0.0004 O   0  0  0  0  0  0
    2.1109    1.1876   -0.0005 O   0  5  0  0  0  0
   -2.6299    2.1314    0.0001 H   0  0  0  0  0  0
   -0.1061    2.1160    0.0001 H   0  0  0  0  0  0
   -0.1363   -2.1516   -0.0001 H   0  0  0  0  0  0
   -3.8618   -0.0706    0.0000 H   0  0  0  0  0  0
  1  6  1  0  0  0
  1  2  2  0  0  0
  1 13  1  0  0  0
  2  3  1  0  0  0
  2 14  1  0  0  0
  3  4  2  0  0  0
  3 10  1  0  0  0
  4  5  1  0  0  0
  4 15  1  0  0  0
  5  6  2  0  0  0
  5  7  1  0  0  0
  6 16  1  0  0  0
  7  8  2  0  0  0
  7  9  1  0  0  0
 10 11  2  0  0  0
 10 12  1  0  0  0
M  END
>  <i_m_Spin_multiplicity> (1)
1

>  <s_j_Task> (1)
Single Point

>  <s_j_QM_Method> (1)
DFT(b3lyp-d3)

>  <s_j_QM_Basis> (1)
cc-pvtz(-f)

>  <i_j_Number_of_canonical_orbitals> (1)
306

>  <i_j_Geometry_convergence_category> (1)
0

>  <r_j_Gas_Phase_Energy> (1)
-608.409070572041

>  <r_j_Final_Energy> (1)
-608.409070572041

>  <r_j_HOMO> (1)
0.0584060454699249

>  <r_j_LUMO> (1)
0.237598535427616

>  <r_j_Polarizability> (1)
106.425943136565

>  <r_j_QM_Dipole_(debye)> (1)
5.66740081613188

>  <r_j_QM_Dipole_X_(debye)> (1)
-2.85066675047797

>  <r_j_QM_Dipole_Y_(debye)> (1)
4.89827837350143

>  <r_j_QM_Dipole_Z_(debye)> (1)
0.000253179520789761

>  <r_j_Lowest_Frequency_(cm-1)> (1)
84.0003834351727

>  <r_j_Highest_Frequency_(cm-1)> (1)
3157.7428550675

>  <r_j_2nd_Lowest_Frequency_(cm-1)> (1)
85.7490393190521

>  <i_j_Num_Negative_Frequencies> (1)
0

>  <r_j_Zero_Point_Energy_(kcal/mol)> (1)
64.8205842339131

>  <r_j_Entropy_(cal/mol/K)_298.15K_1.00E+00atm> (1)
95.4191425599197

>  <r_j_Enthalpy_(kcal/mol)_298.15K_1.00E+00atm> (1)
6.37176641882022

>  <r_j_Free_Energy_(kcal/mol)_298.15K_1.00E+00atm> (1)
-22.0774509354198

>  <r_j_Internal_Energy_(kcal/mol)_298.15K_1.00E+00atm> (1)
5.77928082999294

>  <r_j_Heat_Capacity_(cal/mol/K)_298.15K_1.00E+00atm> (1)
34.4993343926816

>  <r_j_ln(Q)_298.15K_1.00E+00atm> (1)
37.2624268872403

>  <r_j_Total_Internal_Energy_(au)_298.15K_1.00E+00atm> (1)
-608.296562524849

>  <r_j_Total_Enthalpy_(au)_298.15K_1.00E+00atm> (1)
-608.295618338957

>  <r_j_Total_Free_Energy_(au)_298.15K_1.00E+00atm> (1)
-608.340955052926

>  <r_epik_Ionization_Penalty> (1)
  0.0014

>  <r_epik_Ionization_Penalty_Charging> (1)
  0.0014

>  <r_epik_Ionization_Penalty_Neutral> (1)
  0.0000

>  <r_epik_State_Penalty> (1)
  0.0009

>  <r_epik_Charging_Adjusted_Penalty> (1)
0.00226335

>  <i_epik_Tot_Q> (1)
-2

>  <i_epik_Tot_abs_Q> (1)
2

>  <s_lp_Force_Field> (1)
S-OPLS

>  <r_lp_Energy> (1)
31.7991

>  <b_lp_Chiralities_Consistent> (1)
1

$$$$
