85151_4,4-dimethyloctane
                    3D
 Schrodinger Suite 2021-3.
 32 31  0  0  1  0            999 V2000
   -2.7651    2.9010    0.0969 C   0  0  0  0  0  0
   -2.1330    1.5109   -0.0178 C   0  0  0  0  0  0
   -0.6003    1.5411    0.0482 C   0  0  0  0  0  0
    0.0152    0.1397   -0.0647 C   0  0  0  0  0  0
    1.5629    0.0456   -0.0615 C   0  0  0  0  0  0
    2.1574    0.7684   -1.2866 C   0  0  0  0  0  0
    2.1368    0.6837    1.2193 C   0  0  0  0  0  0
    1.9891   -1.4479   -0.0651 C   0  0  0  0  0  0
    1.5511   -2.3070   -1.2596 C   0  0  0  0  0  0
    2.0705   -3.7451   -1.1532 C   0  0  0  0  0  0
   -3.8580    2.8522    0.0468 H   0  0  0  0  0  0
   -2.4231    3.5573   -0.7118 H   0  0  0  0  0  0
   -2.4955    3.3797    1.0454 H   0  0  0  0  0  0
   -2.5164    0.8646    0.7837 H   0  0  0  0  0  0
   -2.4453    1.0413   -0.9607 H   0  0  0  0  0  0
   -0.2235    2.1856   -0.7568 H   0  0  0  0  0  0
   -0.2963    2.0164    0.9894 H   0  0  0  0  0  0
   -0.3687   -0.4774    0.7610 H   0  0  0  0  0  0
   -0.3623   -0.3212   -0.9865 H   0  0  0  0  0  0
    3.2396    0.6040   -1.3455 H   0  0  0  0  0  0
    1.9926    1.8488   -1.2312 H   0  0  0  0  0  0
    1.7129    0.4144   -2.2224 H   0  0  0  0  0  0
    3.2236    0.5500    1.2652 H   0  0  0  0  0  0
    1.7051    0.2247    2.1164 H   0  0  0  0  0  0
    1.9372    1.7587    1.2625 H   0  0  0  0  0  0
    3.0859   -1.4877    0.0040 H   0  0  0  0  0  0
    1.6141   -1.9158    0.8570 H   0  0  0  0  0  0
    0.4572   -2.3261   -1.3309 H   0  0  0  0  0  0
    1.9127   -1.8619   -2.1945 H   0  0  0  0  0  0
    1.7513   -4.3517   -2.0072 H   0  0  0  0  0  0
    1.7020   -4.2311   -0.2422 H   0  0  0  0  0  0
    3.1659   -3.7678   -1.1177 H   0  0  0  0  0  0
  1  2  1  0  0  0
  1 11  1  0  0  0
  1 12  1  0  0  0
  1 13  1  0  0  0
  2  3  1  0  0  0
  2 14  1  0  0  0
  2 15  1  0  0  0
  3  4  1  0  0  0
  3 16  1  0  0  0
  3 17  1  0  0  0
  4  5  1  0  0  0
  4 18  1  0  0  0
  4 19  1  0  0  0
  5  6  1  0  0  0
  5  7  1  0  0  0
  5  8  1  0  0  0
  6 20  1  0  0  0
  6 21  1  0  0  0
  6 22  1  0  0  0
  7 23  1  0  0  0
  7 24  1  0  0  0
  7 25  1  0  0  0
  8  9  1  0  0  0
  8 26  1  0  0  0
  8 27  1  0  0  0
  9 10  1  0  0  0
  9 28  1  0  0  0
  9 29  1  0  0  0
 10 30  1  0  0  0
 10 31  1  0  0  0
 10 32  1  0  0  0
M  END
>  <i_m_Spin_multiplicity> (1)
1

>  <s_j_Task> (1)
Single Point

>  <s_j_QM_Method> (1)
DFT(b3lyp-d3)

>  <s_j_QM_Basis> (1)
cc-pvtz(-f)

>  <i_j_Number_of_canonical_orbitals> (1)
425

>  <i_j_Geometry_convergence_category> (1)
3

>  <r_j_Gas_Phase_Energy> (1)
-394.49909504806

>  <r_j_Final_Energy> (1)
-394.49909504806

>  <r_j_HOMO> (1)
-0.29701418256915

>  <r_j_LUMO> (1)
0.0263490629102918

>  <r_j_Polarizability> (1)
123.263184834896

>  <r_j_QM_Dipole_(debye)> (1)
0.0992885292983868

>  <r_j_QM_Dipole_X_(debye)> (1)
-0.0740688271402065

>  <r_j_QM_Dipole_Y_(debye)> (1)
-0.0078387774832875

>  <r_j_QM_Dipole_Z_(debye)> (1)
-0.0656549652644667

>  <r_j_Lowest_Frequency_(cm-1)> (1)
90.3435395874789

>  <r_j_Highest_Frequency_(cm-1)> (1)
3054.38747573384

>  <r_j_2nd_Lowest_Frequency_(cm-1)> (1)
94.6360099445758

>  <i_j_Num_Negative_Frequencies> (1)
0

>  <r_j_Zero_Point_Energy_(kcal/mol)> (1)
189.396089909682

>  <r_j_Entropy_(cal/mol/K)_298.15K_1.00E+00atm> (1)
107.422099338147

>  <r_j_Enthalpy_(kcal/mol)_298.15K_1.00E+00atm> (1)
8.53873220007464

>  <r_j_Free_Energy_(kcal/mol)_298.15K_1.00E+00atm> (1)
-23.4891667175939

>  <r_j_Internal_Energy_(kcal/mol)_298.15K_1.00E+00atm> (1)
7.94624661124736

>  <r_j_Heat_Capacity_(cal/mol/K)_298.15K_1.00E+00atm> (1)
49.0313771326581

>  <r_j_ln(Q)_298.15K_1.00E+00atm> (1)
39.6451275111801

>  <r_j_Total_Internal_Energy_(au)_298.15K_1.00E+00atm> (1)
-394.184610014836

>  <r_j_Total_Enthalpy_(au)_298.15K_1.00E+00atm> (1)
-394.183665828944

>  <r_j_Total_Free_Energy_(au)_298.15K_1.00E+00atm> (1)
-394.234705535035

>  <r_lp_tautomer_probability> (1)
1

>  <r_epik_Ionization_Penalty> (1)
  0.0000

>  <r_epik_Ionization_Penalty_Charging> (1)
  0.0000

>  <r_epik_Ionization_Penalty_Neutral> (1)
  0.0000

>  <r_epik_State_Penalty> (1)
  0.0000

>  <r_epik_Charging_Adjusted_Penalty> (1)
0

>  <i_epik_Tot_Q> (1)
0

>  <i_epik_Tot_abs_Q> (1)
0

>  <s_lp_Force_Field> (1)
S-OPLS

>  <r_lp_Energy> (1)
8.281245

>  <b_lp_Chiralities_Consistent> (1)
1

$$$$
