85150_2,2-dimethyloctane
                    3D
 Schrodinger Suite 2021-3.
 32 31  0  0  1  0            999 V2000
   -2.1566    1.6813    0.0035 C   0  0  0  0  0  0
   -0.6285    1.5779    0.0003 C   0  0  0  0  0  0
   -0.1238    0.1300    0.0000 C   0  0  0  0  0  0
    1.4048    0.0188   -0.0023 C   0  0  0  0  0  0
    1.9131   -1.4286   -0.0019 C   0  0  0  0  0  0
    3.4453   -1.5100   -0.0020 C   0  0  0  0  0  0
    4.0792   -2.9248   -0.0001 C   0  0  0  0  0  0
    3.6615   -3.7107    1.2571 C   0  0  0  0  0  0
    5.6117   -2.7594    0.0029 C   0  0  0  0  0  0
    3.6664   -3.7121   -1.2580 C   0  0  0  0  0  0
   -2.4903    2.7242    0.0036 H   0  0  0  0  0  0
   -2.5825    1.1944    0.8884 H   0  0  0  0  0  0
   -2.5862    1.1935   -0.8792 H   0  0  0  0  0  0
   -0.2259    2.1006   -0.8782 H   0  0  0  0  0  0
   -0.2223    2.1014    0.8766 H   0  0  0  0  0  0
   -0.5262   -0.3947    0.8786 H   0  0  0  0  0  0
   -0.5290   -0.3954   -0.8770 H   0  0  0  0  0  0
    1.8057    0.5446   -0.8808 H   0  0  0  0  0  0
    1.8081    0.5458    0.8745 H   0  0  0  0  0  0
    1.5074   -1.9472    0.8763 H   0  0  0  0  0  0
    1.5070   -1.9480   -0.8794 H   0  0  0  0  0  0
    3.8236   -0.9664   -0.8800 H   0  0  0  0  0  0
    3.8235   -0.9643    0.8747 H   0  0  0  0  0  0
    4.1720   -4.6797    1.2950 H   0  0  0  0  0  0
    2.5847   -3.9060    1.2755 H   0  0  0  0  0  0
    3.9199   -3.1605    2.1694 H   0  0  0  0  0  0
    5.9479   -2.2081    0.8886 H   0  0  0  0  0  0
    5.9514   -2.2095   -0.8824 H   0  0  0  0  0  0
    6.1134   -3.7338    0.0047 H   0  0  0  0  0  0
    4.1771   -4.6812   -1.2927 H   0  0  0  0  0  0
    3.9284   -3.1630   -2.1699 H   0  0  0  0  0  0
    2.5897   -3.9075   -1.2803 H   0  0  0  0  0  0
  1  2  1  0  0  0
  1 11  1  0  0  0
  1 12  1  0  0  0
  1 13  1  0  0  0
  2  3  1  0  0  0
  2 14  1  0  0  0
  2 15  1  0  0  0
  3  4  1  0  0  0
  3 16  1  0  0  0
  3 17  1  0  0  0
  4  5  1  0  0  0
  4 18  1  0  0  0
  4 19  1  0  0  0
  5  6  1  0  0  0
  5 20  1  0  0  0
  5 21  1  0  0  0
  6  7  1  0  0  0
  6 22  1  0  0  0
  6 23  1  0  0  0
  7  8  1  0  0  0
  7  9  1  0  0  0
  7 10  1  0  0  0
  8 24  1  0  0  0
  8 25  1  0  0  0
  8 26  1  0  0  0
  9 27  1  0  0  0
  9 28  1  0  0  0
  9 29  1  0  0  0
 10 30  1  0  0  0
 10 31  1  0  0  0
 10 32  1  0  0  0
M  END
>  <i_m_Spin_multiplicity> (1)
1

>  <s_j_Task> (1)
Single Point

>  <s_j_QM_Method> (1)
DFT(b3lyp-d3)

>  <s_j_QM_Basis> (1)
cc-pvtz(-f)

>  <i_j_Number_of_canonical_orbitals> (1)
425

>  <i_j_Geometry_convergence_category> (1)
1

>  <r_j_Gas_Phase_Energy> (1)
-394.501584806434

>  <r_j_Final_Energy> (1)
-394.501584806434

>  <r_j_HOMO> (1)
-0.304316949906706

>  <r_j_LUMO> (1)
0.0117944436921478

>  <r_j_Polarizability> (1)
124.288210601163

>  <r_j_QM_Dipole_(debye)> (1)
0.0430736483786682

>  <r_j_QM_Dipole_X_(debye)> (1)
-0.0188247543304267

>  <r_j_QM_Dipole_Y_(debye)> (1)
0.0387420643030254

>  <r_j_QM_Dipole_Z_(debye)> (1)
0.00014234671922245

>  <r_j_Lowest_Frequency_(cm-1)> (1)
69.2910654245188

>  <r_j_Highest_Frequency_(cm-1)> (1)
3051.79509717133

>  <r_j_2nd_Lowest_Frequency_(cm-1)> (1)
91.3674707943671

>  <i_j_Num_Negative_Frequencies> (1)
0

>  <r_j_Zero_Point_Energy_(kcal/mol)> (1)
189.295963688142

>  <r_j_Entropy_(cal/mol/K)_298.15K_1.00E+00atm> (1)
107.300174805516

>  <r_j_Enthalpy_(kcal/mol)_298.15K_1.00E+00atm> (1)
8.5044397297825

>  <r_j_Free_Energy_(kcal/mol)_298.15K_1.00E+00atm> (1)
-23.487107388482

>  <r_j_Internal_Energy_(kcal/mol)_298.15K_1.00E+00atm> (1)
7.91195414095523

>  <r_j_Heat_Capacity_(cal/mol/K)_298.15K_1.00E+00atm> (1)
48.9406650074862

>  <r_j_ln(Q)_298.15K_1.00E+00atm> (1)
39.6416517656924

>  <r_j_Total_Internal_Energy_(au)_298.15K_1.00E+00atm> (1)
-394.187313983032

>  <r_j_Total_Enthalpy_(au)_298.15K_1.00E+00atm> (1)
-394.18636979714

>  <r_j_Total_Free_Energy_(au)_298.15K_1.00E+00atm> (1)
-394.23735157295

>  <r_lp_tautomer_probability> (1)
1

>  <r_epik_Ionization_Penalty> (1)
  0.0000

>  <r_epik_Ionization_Penalty_Charging> (1)
  0.0000

>  <r_epik_Ionization_Penalty_Neutral> (1)
  0.0000

>  <r_epik_State_Penalty> (1)
  0.0000

>  <r_epik_Charging_Adjusted_Penalty> (1)
0

>  <i_epik_Tot_Q> (1)
0

>  <i_epik_Tot_abs_Q> (1)
0

>  <s_lp_Force_Field> (1)
S-OPLS

>  <r_lp_Energy> (1)
6.201637

>  <b_lp_Chiralities_Consistent> (1)
1

$$$$
