853433_Isoeugenol
                    3D
 Schrodinger Suite 2021-3.
 24 24  0  0  1  0            999 V2000
   -2.3581    0.9614    0.0001 C   0  0  0  0  0  0
   -0.8530    1.0868    0.0000 C   0  0  0  0  0  0
   -0.0148    0.0399   -0.0001 C   0  0  0  0  0  0
    1.4543    0.0550   -0.0001 C   0  0  0  0  0  0
    2.2086    1.2489    0.0000 C   0  0  0  0  0  0
    3.5981    1.2318    0.0000 C   0  0  0  0  0  0
    4.2818   -0.0080    0.0000 C   0  0  0  0  0  0
    3.5454   -1.1866    0.0000 C   0  0  0  0  0  0
    2.1491   -1.1586    0.0000 C   0  0  0  0  0  0
    5.6462    0.0323    0.0000 O   0  0  0  0  0  0
    4.3982    2.3361    0.0001 O   0  0  0  0  0  0
    3.7741    3.6086    0.0000 C   0  0  0  0  0  0
   -2.8424    1.9417    0.0001 H   0  0  0  0  0  0
   -2.7189    0.4177    0.8817 H   0  0  0  0  0  0
   -2.7189    0.4178   -0.8816 H   0  0  0  0  0  0
   -0.4502    2.0981    0.0002 H   0  0  0  0  0  0
   -0.4544   -0.9591   -0.0002 H   0  0  0  0  0  0
    1.6923    2.2002   -0.0001 H   0  0  0  0  0  0
    4.0717   -2.1390    0.0000 H   0  0  0  0  0  0
    1.5977   -2.0945    0.0000 H   0  0  0  0  0  0
    5.9796   -0.8744    0.0000 H   0  0  0  0  0  0
    4.5838    4.3399   -0.0001 H   0  0  0  0  0  0
    3.1529    3.7576    0.8937 H   0  0  0  0  0  0
    3.1529    3.7575   -0.8938 H   0  0  0  0  0  0
  1  2  1  0  0  0
  1 13  1  0  0  0
  1 14  1  0  0  0
  1 15  1  0  0  0
  2  3  2  0  0  0
  2 16  1  0  0  0
  3  4  1  0  0  0
  3 17  1  0  0  0
  4  9  1  0  0  0
  4  5  2  0  0  0
  5  6  1  0  0  0
  5 18  1  0  0  0
  6  7  2  0  0  0
  6 11  1  0  0  0
  7  8  1  0  0  0
  7 10  1  0  0  0
  8  9  2  0  0  0
  8 19  1  0  0  0
  9 20  1  0  0  0
 10 21  1  0  0  0
 11 12  1  0  0  0
 12 22  1  0  0  0
 12 23  1  0  0  0
 12 24  1  0  0  0
M  END
>  <i_m_Spin_multiplicity> (1)
1

>  <s_j_Task> (1)
Single Point

>  <s_j_QM_Method> (1)
DFT(b3lyp-d3)

>  <s_j_QM_Basis> (1)
cc-pvtz(-f)

>  <i_j_Number_of_canonical_orbitals> (1)
377

>  <i_j_Geometry_convergence_category> (1)
0

>  <r_j_Gas_Phase_Energy> (1)
-538.901384462753

>  <r_j_Final_Energy> (1)
-538.901384462753

>  <r_j_HOMO> (1)
-0.196655410978957

>  <r_j_LUMO> (1)
-0.0286170410132589

>  <r_j_Polarizability> (1)
134.867081681266

>  <r_j_QM_Dipole_(debye)> (1)
0.536521460820639

>  <r_j_QM_Dipole_X_(debye)> (1)
-0.516961764808306

>  <r_j_QM_Dipole_Y_(debye)> (1)
-0.143547236088696

>  <r_j_QM_Dipole_Z_(debye)> (1)
-5.15624898164113e-05

>  <r_j_Lowest_Frequency_(cm-1)> (1)
-90.4060154841228

>  <r_j_Highest_Frequency_(cm-1)> (1)
3771.54292641268

>  <r_j_2nd_Lowest_Frequency_(cm-1)> (1)
92.3034313383137

>  <i_j_Num_Negative_Frequencies> (1)
1

>  <r_j_Zero_Point_Energy_(kcal/mol)> (1)
123.571723939522

>  <r_j_Entropy_(cal/mol/K)_298.15K_1.00E+00atm> (1)
101.936261547168

>  <r_j_Enthalpy_(kcal/mol)_298.15K_1.00E+00atm> (1)
7.51345743613171

>  <r_j_Free_Energy_(kcal/mol)_298.15K_1.00E+00atm> (1)
-22.8788389441566

>  <r_j_Internal_Energy_(kcal/mol)_298.15K_1.00E+00atm> (1)
6.92097184730444

>  <r_j_Heat_Capacity_(cal/mol/K)_298.15K_1.00E+00atm> (1)
42.8311294912754

>  <r_j_ln(Q)_298.15K_1.00E+00atm> (1)
38.6150133869777

>  <r_j_Total_Internal_Energy_(au)_298.15K_1.00E+00atm> (1)
-538.693431113799

>  <r_j_Total_Enthalpy_(au)_298.15K_1.00E+00atm> (1)
-538.692486927907

>  <r_j_Total_Free_Energy_(au)_298.15K_1.00E+00atm> (1)
-538.740920135425

>  <r_epik_Ionization_Penalty> (1)
  0.0010

>  <r_epik_Ionization_Penalty_Charging> (1)
  0.0000

>  <r_epik_Ionization_Penalty_Neutral> (1)
  0.0010

>  <r_epik_State_Penalty> (1)
  0.0006

>  <r_epik_Charging_Adjusted_Penalty> (1)
0.000640304783404101

>  <i_epik_Tot_Q> (1)
0

>  <i_epik_Tot_abs_Q> (1)
0

>  <s_lp_Force_Field> (1)
S-OPLS

>  <r_lp_Energy> (1)
14.423471

>  <b_lp_Chiralities_Consistent> (1)
1

$$$$
