8554_Dimethyl phthalate
                    3D
 Schrodinger Suite 2021-3.
 24 24  0  0  1  0            999 V2000
   -1.6464   -1.6890   -0.4290 C   0  0  0  0  0  0
   -0.2476   -1.3625   -0.4633 O   0  0  0  0  0  0
    0.0832   -0.2018    0.1424 C   0  0  0  0  0  0
   -0.7021    0.4795    0.7678 O   0  0  0  0  0  0
    1.5464    0.0874    0.0285 C   0  0  0  0  0  0
    2.1730    0.5932    1.1715 C   0  0  0  0  0  0
    3.5511    0.7971    1.1930 C   0  0  0  0  0  0
    4.3169    0.4913    0.0674 C   0  0  0  0  0  0
    3.6977    0.0092   -1.0838 C   0  0  0  0  0  0
    2.3126   -0.1767   -1.1220 C   0  0  0  0  0  0
    1.7299   -0.5881   -2.4369 C   0  0  0  0  0  0
    2.2611   -1.3572   -3.2108 O   0  0  0  0  0  0
    0.5791    0.0676   -2.7014 O   0  0  0  0  0  0
   -0.0611   -0.3017   -3.9335 C   0  0  0  0  0  0
   -1.7361   -2.6512   -0.9328 H   0  0  0  0  0  0
   -2.2283   -0.9242   -0.9507 H   0  0  0  0  0  0
   -2.0009   -1.7577    0.6025 H   0  0  0  0  0  0
    1.5631    0.8084    2.0424 H   0  0  0  0  0  0
    4.0264    1.1848    2.0890 H   0  0  0  0  0  0
    5.3928    0.6371    0.0821 H   0  0  0  0  0  0
    4.2740   -0.2167   -1.9749 H   0  0  0  0  0  0
   -0.9486    0.3269   -4.0033 H   0  0  0  0  0  0
   -0.3374   -1.3596   -3.9162 H   0  0  0  0  0  0
    0.6054   -0.1261   -4.7816 H   0  0  0  0  0  0
  1  2  1  0  0  0
  1 15  1  0  0  0
  1 16  1  0  0  0
  1 17  1  0  0  0
  2  3  1  0  0  0
  3  4  2  0  0  0
  3  5  1  0  0  0
  5 10  1  0  0  0
  5  6  2  0  0  0
  6  7  1  0  0  0
  6 18  1  0  0  0
  7  8  2  0  0  0
  7 19  1  0  0  0
  8  9  1  0  0  0
  8 20  1  0  0  0
  9 10  2  0  0  0
  9 21  1  0  0  0
 10 11  1  0  0  0
 11 12  2  0  0  0
 11 13  1  0  0  0
 13 14  1  0  0  0
 14 22  1  0  0  0
 14 23  1  0  0  0
 14 24  1  0  0  0
M  END
>  <i_m_Spin_multiplicity> (1)
1

>  <s_j_Task> (1)
Single Point

>  <s_j_QM_Method> (1)
DFT(b3lyp-d3)

>  <s_j_QM_Basis> (1)
cc-pvtz(-f)

>  <i_j_Number_of_canonical_orbitals> (1)
405

>  <i_j_Geometry_convergence_category> (1)
3

>  <r_j_Gas_Phase_Energy> (1)
-688.247795614517

>  <r_j_Final_Energy> (1)
-688.247795614517

>  <r_j_HOMO> (1)
-0.266613302888449

>  <r_j_LUMO> (1)
-0.06315801701968

>  <r_j_Polarizability> (1)
125.991118120997

>  <r_j_QM_Dipole_(debye)> (1)
0.171105718394465

>  <r_j_QM_Dipole_X_(debye)> (1)
-0.142455335122997

>  <r_j_QM_Dipole_Y_(debye)> (1)
-0.041547493442002

>  <r_j_QM_Dipole_Z_(debye)> (1)
-0.085190669389127

>  <r_j_Lowest_Frequency_(cm-1)> (1)
73.5605610589094

>  <r_j_Highest_Frequency_(cm-1)> (1)
3160.53864575981

>  <r_j_2nd_Lowest_Frequency_(cm-1)> (1)
83.0782237742846

>  <i_j_Num_Negative_Frequencies> (1)
0

>  <r_j_Zero_Point_Energy_(kcal/mol)> (1)
116.362641435601

>  <r_j_Entropy_(cal/mol/K)_298.15K_1.00E+00atm> (1)
109.89331663122

>  <r_j_Enthalpy_(kcal/mol)_298.15K_1.00E+00atm> (1)
8.51825659132302

>  <r_j_Free_Energy_(kcal/mol)_298.15K_1.00E+00atm> (1)
-24.2464357622753

>  <r_j_Internal_Energy_(kcal/mol)_298.15K_1.00E+00atm> (1)
7.92577100249575

>  <r_j_Heat_Capacity_(cal/mol/K)_298.15K_1.00E+00atm> (1)
47.2046736300891

>  <r_j_ln(Q)_298.15K_1.00E+00atm> (1)
40.9232498131593

>  <r_j_Total_Internal_Energy_(au)_298.15K_1.00E+00atm> (1)
-688.049729420492

>  <r_j_Total_Enthalpy_(au)_298.15K_1.00E+00atm> (1)
-688.048785234599

>  <r_j_Total_Free_Energy_(au)_298.15K_1.00E+00atm> (1)
-688.100999095776

>  <r_lp_tautomer_probability> (1)
1

>  <r_epik_Ionization_Penalty> (1)
  0.0000

>  <r_epik_Ionization_Penalty_Charging> (1)
  0.0000

>  <r_epik_Ionization_Penalty_Neutral> (1)
  0.0000

>  <r_epik_State_Penalty> (1)
  0.0000

>  <r_epik_Charging_Adjusted_Penalty> (1)
0

>  <i_epik_Tot_Q> (1)
0

>  <i_epik_Tot_abs_Q> (1)
0

>  <s_lp_Force_Field> (1)
S-OPLS

>  <r_lp_Energy> (1)
21.3165

>  <b_lp_Chiralities_Consistent> (1)
1

>  <s_epik_Chemistry_Notes> (1)
This compound has an ester and may undergo hydrolysis at high or low pH.

$$$$
