8559_Dipropyl phthalate
                    3D
 Schrodinger Suite 2021-3.
 36 36  0  0  1  0            999 V2000
   -3.7502   -1.6817   -1.0490 C   0  0  0  0  0  0
   -2.2215   -1.6116   -1.1024 C   0  0  0  0  0  0
   -1.6756   -0.5395   -0.1751 C   0  0  0  0  0  0
   -0.2355   -0.5648   -0.2904 O   0  0  0  0  0  0
    0.4287    0.4463    0.3032 C   0  0  0  0  0  0
   -0.1079    1.3311    0.9390 O   0  0  0  0  0  0
    1.9104    0.2830    0.1689 C   0  0  0  0  0  0
    2.6757    0.5708    1.3025 C   0  0  0  0  0  0
    4.0487    0.3320    1.3093 C   0  0  0  0  0  0
    4.6671   -0.2045    0.1797 C   0  0  0  0  0  0
    3.9153   -0.4729   -0.9626 C   0  0  0  0  0  0
    2.5425   -0.2133   -0.9860 C   0  0  0  0  0  0
    1.8419   -0.4099   -2.2936 C   0  0  0  0  0  0
    2.0706   -1.3171   -3.0662 O   0  0  0  0  0  0
    0.9914    0.6049   -2.5470 O   0  0  0  0  0  0
    0.2419    0.5229   -3.7796 C   0  0  0  0  0  0
   -0.5158    1.8316   -3.9362 C   0  0  0  0  0  0
   -1.5029    2.1005   -2.7961 C   0  0  0  0  0  0
   -4.1305   -2.4549   -1.7228 H   0  0  0  0  0  0
   -4.2028   -0.7285   -1.3447 H   0  0  0  0  0  0
   -4.1027   -1.9171   -0.0386 H   0  0  0  0  0  0
   -1.7823   -2.5775   -0.8287 H   0  0  0  0  0  0
   -1.8861   -1.3942   -2.1234 H   0  0  0  0  0  0
   -2.0419    0.4566   -0.4383 H   0  0  0  0  0  0
   -1.9473   -0.7259    0.8706 H   0  0  0  0  0  0
    2.1732    0.9678    2.1782 H   0  0  0  0  0  0
    4.6315    0.5545    2.1979 H   0  0  0  0  0  0
    5.7343   -0.4045    0.1838 H   0  0  0  0  0  0
    4.3813   -0.8718   -1.8575 H   0  0  0  0  0  0
    0.9353    0.3425   -4.6066 H   0  0  0  0  0  0
   -0.4351   -0.3379   -3.7184 H   0  0  0  0  0  0
    0.2108    2.6500   -4.0040 H   0  0  0  0  0  0
   -1.0431    1.7971   -4.8977 H   0  0  0  0  0  0
   -2.0381    3.0420   -2.9518 H   0  0  0  0  0  0
   -0.9835    2.1612   -1.8359 H   0  0  0  0  0  0
   -2.2485    1.2995   -2.7294 H   0  0  0  0  0  0
  1  2  1  0  0  0
  1 19  1  0  0  0
  1 20  1  0  0  0
  1 21  1  0  0  0
  2  3  1  0  0  0
  2 22  1  0  0  0
  2 23  1  0  0  0
  3  4  1  0  0  0
  3 24  1  0  0  0
  3 25  1  0  0  0
  4  5  1  0  0  0
  5  6  2  0  0  0
  5  7  1  0  0  0
  7 12  1  0  0  0
  7  8  2  0  0  0
  8  9  1  0  0  0
  8 26  1  0  0  0
  9 10  2  0  0  0
  9 27  1  0  0  0
 10 11  1  0  0  0
 10 28  1  0  0  0
 11 12  2  0  0  0
 11 29  1  0  0  0
 12 13  1  0  0  0
 13 14  2  0  0  0
 13 15  1  0  0  0
 15 16  1  0  0  0
 16 17  1  0  0  0
 16 30  1  0  0  0
 16 31  1  0  0  0
 17 18  1  0  0  0
 17 32  1  0  0  0
 17 33  1  0  0  0
 18 34  1  0  0  0
 18 35  1  0  0  0
 18 36  1  0  0  0
M  END
>  <i_m_Spin_multiplicity> (1)
1

>  <s_j_Task> (1)
Single Point

>  <s_j_QM_Method> (1)
DFT(b3lyp-d3)

>  <s_j_QM_Basis> (1)
cc-pvtz(-f)

>  <i_j_Number_of_canonical_orbitals> (1)
570

>  <i_j_Geometry_convergence_category> (1)
0

>  <r_j_Gas_Phase_Energy> (1)
-845.578549540464

>  <r_j_Final_Energy> (1)
-845.578549540464

>  <r_j_HOMO> (1)
-0.263359660561036

>  <r_j_LUMO> (1)
-0.060167134450288

>  <r_j_Polarizability> (1)
175.267570188067

>  <r_j_QM_Dipole_(debye)> (1)
0.449174271423776

>  <r_j_QM_Dipole_X_(debye)> (1)
-0.404192883218789

>  <r_j_QM_Dipole_Y_(debye)> (1)
0.0355942567349921

>  <r_j_QM_Dipole_Z_(debye)> (1)
-0.192662108759988

>  <r_j_Lowest_Frequency_(cm-1)> (1)
53.4100079316787

>  <r_j_Highest_Frequency_(cm-1)> (1)
3160.17592633851

>  <r_j_2nd_Lowest_Frequency_(cm-1)> (1)
62.9191767456567

>  <i_j_Num_Negative_Frequencies> (1)
0

>  <r_j_Zero_Point_Energy_(kcal/mol)> (1)
187.861474759493

>  <r_j_Entropy_(cal/mol/K)_298.15K_1.00E+00atm> (1)
130.869367208115

>  <r_j_Enthalpy_(kcal/mol)_298.15K_1.00E+00atm> (1)
11.4636536209777

>  <r_j_Free_Energy_(kcal/mol)_298.15K_1.00E+00atm> (1)
-27.5550482121219

>  <r_j_Internal_Energy_(kcal/mol)_298.15K_1.00E+00atm> (1)
10.8711680321504

>  <r_j_Heat_Capacity_(cal/mol/K)_298.15K_1.00E+00atm> (1)
66.1925214250314

>  <r_j_ln(Q)_298.15K_1.00E+00atm> (1)
46.5075416714565

>  <r_j_Total_Internal_Energy_(au)_298.15K_1.00E+00atm> (1)
-845.261848913155

>  <r_j_Total_Enthalpy_(au)_298.15K_1.00E+00atm> (1)
-845.260904727263

>  <r_j_Total_Free_Energy_(au)_298.15K_1.00E+00atm> (1)
-845.323084987001

>  <r_lp_tautomer_probability> (1)
1

>  <r_epik_Ionization_Penalty> (1)
  0.0000

>  <r_epik_Ionization_Penalty_Charging> (1)
  0.0000

>  <r_epik_Ionization_Penalty_Neutral> (1)
  0.0000

>  <r_epik_State_Penalty> (1)
  0.0000

>  <r_epik_Charging_Adjusted_Penalty> (1)
0

>  <i_epik_Tot_Q> (1)
0

>  <i_epik_Tot_abs_Q> (1)
0

>  <s_lp_Force_Field> (1)
S-OPLS

>  <r_lp_Energy> (1)
16.361032

>  <b_lp_Chiralities_Consistent> (1)
1

>  <s_epik_Chemistry_Notes> (1)
This compound has an ester and may undergo hydrolysis at high or low pH.

$$$$
