85927_3,6-dimethyloctane
                    3D
 Schrodinger Suite 2021-3.
 32 31  0  0  1  0            999 V2000
   -0.5997    3.8228    1.1614 C   0  0  0  0  0  0
   -0.1403    2.3635    1.2587 C   0  0  0  0  0  0
   -0.5907    1.4675    0.0877 C   0  0  0  0  0  0
   -2.1210    1.4151   -0.0377 C   0  0  0  0  0  0
   -0.0257    0.0379    0.2113 C   0  0  0  0  0  0
    1.5073   -0.0579    0.1871 C   0  0  0  0  0  0
    2.0555   -1.4863   -0.0008 C   0  0  0  0  0  0
    1.5865   -2.4269    1.1199 C   0  0  0  0  0  0
    3.5952   -1.5033   -0.0912 C   0  0  0  0  0  0
    4.1846   -0.7431   -1.2845 C   0  0  0  0  0  0
   -0.1647    4.4249    1.9658 H   0  0  0  0  0  0
   -1.6874    3.9176    1.2338 H   0  0  0  0  0  0
   -0.2904    4.2688    0.2086 H   0  0  0  0  0  0
    0.9539    2.3480    1.3200 H   0  0  0  0  0  0
   -0.5045    1.9238    2.1989 H   0  0  0  0  0  0
   -0.1890    1.9064   -0.8398 H   0  0  0  0  0  0
   -2.5717    1.0306    0.8860 H   0  0  0  0  0  0
   -2.4255    0.7531   -0.8557 H   0  0  0  0  0  0
   -2.5529    2.4006   -0.2342 H   0  0  0  0  0  0
   -0.4186   -0.4129    1.1327 H   0  0  0  0  0  0
   -0.4266   -0.5660   -0.6154 H   0  0  0  0  0  0
    1.8775    0.5807   -0.6250 H   0  0  0  0  0  0
    1.9281    0.3528    1.1152 H   0  0  0  0  0  0
    1.6625   -1.8723   -0.9551 H   0  0  0  0  0  0
    1.9140   -2.0543    2.0987 H   0  0  0  0  0  0
    2.0034   -3.4317    0.9907 H   0  0  0  0  0  0
    0.4974   -2.5224    1.1477 H   0  0  0  0  0  0
    4.0097   -1.1004    0.8444 H   0  0  0  0  0  0
    3.9263   -2.5490   -0.1411 H   0  0  0  0  0  0
    5.2693   -0.8816   -1.3399 H   0  0  0  0  0  0
    3.9964    0.3332   -1.2218 H   0  0  0  0  0  0
    3.7552   -1.1003   -2.2280 H   0  0  0  0  0  0
  1  2  1  0  0  0
  1 11  1  0  0  0
  1 12  1  0  0  0
  1 13  1  0  0  0
  2  3  1  0  0  0
  2 14  1  0  0  0
  2 15  1  0  0  0
  3  4  1  0  0  0
  3  5  1  0  0  0
  3 16  1  0  0  0
  4 17  1  0  0  0
  4 18  1  0  0  0
  4 19  1  0  0  0
  5  6  1  0  0  0
  5 20  1  0  0  0
  5 21  1  0  0  0
  6  7  1  0  0  0
  6 22  1  0  0  0
  6 23  1  0  0  0
  7  8  1  0  0  0
  7  9  1  0  0  0
  7 24  1  0  0  0
  8 25  1  0  0  0
  8 26  1  0  0  0
  8 27  1  0  0  0
  9 10  1  0  0  0
  9 28  1  0  0  0
  9 29  1  0  0  0
 10 30  1  0  0  0
 10 31  1  0  0  0
 10 32  1  0  0  0
M  END
>  <i_m_Spin_multiplicity> (1)
1

>  <s_j_Task> (1)
Single Point

>  <s_j_QM_Method> (1)
DFT(b3lyp-d3)

>  <s_j_QM_Basis> (1)
cc-pvtz(-f)

>  <i_j_Number_of_canonical_orbitals> (1)
425

>  <i_j_Geometry_convergence_category> (1)
0

>  <r_j_Gas_Phase_Energy> (1)
-394.498878067874

>  <r_j_Final_Energy> (1)
-394.498878067874

>  <r_j_HOMO> (1)
-0.299330739367421

>  <r_j_LUMO> (1)
0.0276041806900194

>  <r_j_Polarizability> (1)
123.201182098508

>  <r_j_QM_Dipole_(debye)> (1)
0.114218264411315

>  <r_j_QM_Dipole_X_(debye)> (1)
0.0915881839568282

>  <r_j_QM_Dipole_Y_(debye)> (1)
-0.0229835262794374

>  <r_j_QM_Dipole_Z_(debye)> (1)
-0.0642586492574016

>  <r_j_Lowest_Frequency_(cm-1)> (1)
62.0635181164211

>  <r_j_Highest_Frequency_(cm-1)> (1)
3059.95832192072

>  <r_j_2nd_Lowest_Frequency_(cm-1)> (1)
96.4532091852703

>  <i_j_Num_Negative_Frequencies> (1)
0

>  <r_j_Zero_Point_Energy_(kcal/mol)> (1)
189.530052219924

>  <r_j_Entropy_(cal/mol/K)_298.15K_1.00E+00atm> (1)
107.763729112502

>  <r_j_Enthalpy_(kcal/mol)_298.15K_1.00E+00atm> (1)
8.52748260590661

>  <r_j_Free_Energy_(kcal/mol)_298.15K_1.00E+00atm> (1)
-23.6022732289859

>  <r_j_Internal_Energy_(kcal/mol)_298.15K_1.00E+00atm> (1)
7.93499701707933

>  <r_j_Heat_Capacity_(cal/mol/K)_298.15K_1.00E+00atm> (1)
48.6880899908922

>  <r_j_ln(Q)_298.15K_1.00E+00atm> (1)
39.8360292200569

>  <r_j_Total_Internal_Energy_(au)_298.15K_1.00E+00atm> (1)
-394.184197479489

>  <r_j_Total_Enthalpy_(au)_298.15K_1.00E+00atm> (1)
-394.183253293597

>  <r_j_Total_Free_Energy_(au)_298.15K_1.00E+00atm> (1)
-394.234455319018

>  <r_lp_tautomer_probability> (1)
1

>  <r_epik_Ionization_Penalty> (1)
  0.0000

>  <r_epik_Ionization_Penalty_Charging> (1)
  0.0000

>  <r_epik_Ionization_Penalty_Neutral> (1)
  0.0000

>  <r_epik_State_Penalty> (1)
  0.0000

>  <r_epik_Charging_Adjusted_Penalty> (1)
0

>  <i_epik_Tot_Q> (1)
0

>  <i_epik_Tot_abs_Q> (1)
0

>  <s_lp_Force_Field> (1)
S-OPLS

>  <r_lp_Energy> (1)
6.31136

>  <b_lp_Chiralities_Consistent> (1)
1

$$$$
