85926_3,4-dimethyloctane
                    3D
 Schrodinger Suite 2021-3.
 32 31  0  0  1  0            999 V2000
   -2.7195    2.9174    0.0501 C   0  0  0  0  0  0
   -2.1163    1.5101    0.0861 C   0  0  0  0  0  0
   -0.5930    1.5053   -0.0960 C   0  0  0  0  0  0
   -0.0009    0.0887   -0.0900 C   0  0  0  0  0  0
    1.5420    0.0103   -0.0525 C   0  0  0  0  0  0
    2.1491    0.7742   -1.2423 C   0  0  0  0  0  0
    2.0442   -1.4639    0.0146 C   0  0  0  0  0  0
    1.4579   -2.2167    1.2217 C   0  0  0  0  0  0
    3.5878   -1.5489    0.0226 C   0  0  0  0  0  0
    4.1602   -2.9722    0.0423 C   0  0  0  0  0  0
   -3.8057    2.8942    0.1867 H   0  0  0  0  0  0
   -2.5141    3.4099   -0.9074 H   0  0  0  0  0  0
   -2.2968    3.5474    0.8414 H   0  0  0  0  0  0
   -2.3693    1.0254    1.0390 H   0  0  0  0  0  0
   -2.5751    0.8928   -0.6986 H   0  0  0  0  0  0
   -0.3511    2.0209   -1.0335 H   0  0  0  0  0  0
   -0.1303    2.0983    0.7067 H   0  0  0  0  0  0
   -0.4111   -0.4328    0.7811 H   0  0  0  0  0  0
   -0.3650   -0.4596   -0.9720 H   0  0  0  0  0  0
    1.8749    0.5079    0.8732 H   0  0  0  0  0  0
    1.8907    0.2829   -2.1891 H   0  0  0  0  0  0
    3.2378    0.8369   -1.1841 H   0  0  0  0  0  0
    1.7765    1.8003   -1.2884 H   0  0  0  0  0  0
    1.6933   -1.9679   -0.9011 H   0  0  0  0  0  0
    1.7456   -1.7253    2.1598 H   0  0  0  0  0  0
    1.8186   -3.2474    1.2624 H   0  0  0  0  0  0
    0.3674   -2.2664    1.1912 H   0  0  0  0  0  0
    3.9812   -1.0457   -0.8656 H   0  0  0  0  0  0
    3.9702   -0.9870    0.8873 H   0  0  0  0  0  0
    5.2453   -2.9541   -0.1041 H   0  0  0  0  0  0
    3.7276   -3.5803   -0.7612 H   0  0  0  0  0  0
    3.9688   -3.4875    0.9879 H   0  0  0  0  0  0
  1  2  1  0  0  0
  1 11  1  0  0  0
  1 12  1  0  0  0
  1 13  1  0  0  0
  2  3  1  0  0  0
  2 14  1  0  0  0
  2 15  1  0  0  0
  3  4  1  0  0  0
  3 16  1  0  0  0
  3 17  1  0  0  0
  4  5  1  0  0  0
  4 18  1  0  0  0
  4 19  1  0  0  0
  5  6  1  0  0  0
  5  7  1  0  0  0
  5 20  1  0  0  0
  6 21  1  0  0  0
  6 22  1  0  0  0
  6 23  1  0  0  0
  7  8  1  0  0  0
  7  9  1  0  0  0
  7 24  1  0  0  0
  8 25  1  0  0  0
  8 26  1  0  0  0
  8 27  1  0  0  0
  9 10  1  0  0  0
  9 28  1  0  0  0
  9 29  1  0  0  0
 10 30  1  0  0  0
 10 31  1  0  0  0
 10 32  1  0  0  0
M  END
>  <i_m_Spin_multiplicity> (1)
1

>  <s_j_Task> (1)
Single Point

>  <s_j_QM_Method> (1)
DFT(b3lyp-d3)

>  <s_j_QM_Basis> (1)
cc-pvtz(-f)

>  <i_j_Number_of_canonical_orbitals> (1)
425

>  <i_j_Geometry_convergence_category> (1)
1

>  <r_j_Gas_Phase_Energy> (1)
-394.495384874418

>  <r_j_Final_Energy> (1)
-394.495384874418

>  <r_j_HOMO> (1)
-0.296614623416743

>  <r_j_LUMO> (1)
0.023755241598011

>  <r_j_Polarizability> (1)
123.744116564988

>  <r_j_QM_Dipole_(debye)> (1)
0.0118685001708338

>  <r_j_QM_Dipole_X_(debye)> (1)
0.00686320881986695

>  <r_j_QM_Dipole_Y_(debye)> (1)
0.00201045695388956

>  <r_j_QM_Dipole_Z_(debye)> (1)
-0.00947183846127773

>  <r_j_Lowest_Frequency_(cm-1)> (1)
59.9860878575733

>  <r_j_Highest_Frequency_(cm-1)> (1)
3073.72355038585

>  <r_j_2nd_Lowest_Frequency_(cm-1)> (1)
89.6359898518613

>  <i_j_Num_Negative_Frequencies> (1)
0

>  <r_j_Zero_Point_Energy_(kcal/mol)> (1)
189.493221085393

>  <r_j_Entropy_(cal/mol/K)_298.15K_1.00E+00atm> (1)
108.278520671299

>  <r_j_Enthalpy_(kcal/mol)_298.15K_1.00E+00atm> (1)
8.6068008481357

>  <r_j_Free_Energy_(kcal/mol)_298.15K_1.00E+00atm> (1)
-23.6764400900121

>  <r_j_Internal_Energy_(kcal/mol)_298.15K_1.00E+00atm> (1)
8.01431525930843

>  <r_j_Heat_Capacity_(cal/mol/K)_298.15K_1.00E+00atm> (1)
48.8506319008825

>  <r_j_ln(Q)_298.15K_1.00E+00atm> (1)
39.9612084014999

>  <r_j_Total_Internal_Energy_(au)_298.15K_1.00E+00atm> (1)
-394.180636578516

>  <r_j_Total_Enthalpy_(au)_298.15K_1.00E+00atm> (1)
-394.179692392624

>  <r_j_Total_Free_Energy_(au)_298.15K_1.00E+00atm> (1)
-394.231139012127

>  <r_lp_tautomer_probability> (1)
1

>  <r_epik_Ionization_Penalty> (1)
  0.0000

>  <r_epik_Ionization_Penalty_Charging> (1)
  0.0000

>  <r_epik_Ionization_Penalty_Neutral> (1)
  0.0000

>  <r_epik_State_Penalty> (1)
  0.0000

>  <r_epik_Charging_Adjusted_Penalty> (1)
0

>  <i_epik_Tot_Q> (1)
0

>  <i_epik_Tot_abs_Q> (1)
0

>  <s_lp_Force_Field> (1)
S-OPLS

>  <r_lp_Energy> (1)
9.06685

>  <b_lp_Chiralities_Consistent> (1)
1

$$$$
