8607_N-(trichloromethylthio)phthalimide
                    3D
 Schrodinger Suite 2021-3.
 20 21  0  0  1  0            999 V2000
   -4.5928    0.7004   -0.0827 C   0  0  0  0  0  0
   -4.5928   -0.7015   -0.0850 C   0  0  0  0  0  0
   -3.3955   -1.4250   -0.0594 C   0  0  0  0  0  0
   -2.2137   -0.6983   -0.0272 C   0  0  0  0  0  0
   -2.2138    0.6970   -0.0254 C   0  0  0  0  0  0
   -3.3955    1.4239   -0.0550 C   0  0  0  0  0  0
   -0.8119    1.1885    0.0120 C   0  0  0  0  0  0
   -0.3982    2.3207   -0.0101 O   0  0  0  0  0  0
   -0.0063   -0.0007    0.0729 N   0  0  0  0  0  0
   -0.8119   -1.1899    0.0100 C   0  0  0  0  0  0
   -0.3980   -2.3219   -0.0138 O   0  0  0  0  0  0
    1.6901   -0.0012    0.0904 S   0  0  0  0  0  0
    2.0302    0.0022    1.9100 C   0  0  0  0  0  0
    3.8311   -0.0056    1.9832 Cl  0  0  0  0  0  0
    1.3821    1.4646    2.7312 Cl  0  0  0  0  0  0
    1.3669   -1.4489    2.7395 Cl  0  0  0  0  0  0
   -5.5396    1.2313   -0.1021 H   0  0  0  0  0  0
   -5.5396   -1.2323   -0.1065 H   0  0  0  0  0  0
   -3.3791   -2.5096   -0.0618 H   0  0  0  0  0  0
   -3.3790    2.5084   -0.0540 H   0  0  0  0  0  0
  1  6  1  0  0  0
  1  2  2  0  0  0
  1 17  1  0  0  0
  2  3  1  0  0  0
  2 18  1  0  0  0
  3  4  2  0  0  0
  3 19  1  0  0  0
  4 10  1  0  0  0
  4  5  1  0  0  0
  5  6  2  0  0  0
  5  7  1  0  0  0
  6 20  1  0  0  0
  7  8  2  0  0  0
  7  9  1  0  0  0
  9 10  1  0  0  0
  9 12  1  0  0  0
 10 11  2  0  0  0
 12 13  1  0  0  0
 13 14  1  0  0  0
 13 15  1  0  0  0
 13 16  1  0  0  0
M  END
>  <i_m_Spin_multiplicity> (1)
1

>  <s_j_Task> (1)
Single Point

>  <s_j_QM_Method> (1)
DFT(b3lyp-d3)

>  <s_j_QM_Basis> (1)
cc-pvtz(-f)

>  <i_j_Number_of_canonical_orbitals> (1)
414

>  <i_j_Geometry_convergence_category> (1)
3

>  <r_j_Gas_Phase_Energy> (1)
-2329.66505706087

>  <r_j_Final_Energy> (1)
-2329.66505706087

>  <r_j_HOMO> (1)
-0.27875766559867

>  <r_j_LUMO> (1)
-0.105274453018456

>  <r_j_Polarizability> (1)
169.507149821573

>  <r_j_QM_Dipole_(debye)> (1)
4.64478654336593

>  <r_j_QM_Dipole_X_(debye)> (1)
-4.61203875723553

>  <r_j_QM_Dipole_Y_(debye)> (1)
3.46601973664043e-05

>  <r_j_QM_Dipole_Z_(debye)> (1)
-0.550581995700266

>  <r_j_Lowest_Frequency_(cm-1)> (1)
39.2826630617546

>  <r_j_Highest_Frequency_(cm-1)> (1)
3164.67069641383

>  <r_j_2nd_Lowest_Frequency_(cm-1)> (1)
46.6741884987555

>  <i_j_Num_Negative_Frequencies> (1)
0

>  <r_j_Zero_Point_Energy_(kcal/mol)> (1)
72.019876047469

>  <r_j_Entropy_(cal/mol/K)_298.15K_1.00E+00atm> (1)
118.174575867831

>  <r_j_Enthalpy_(kcal/mol)_298.15K_1.00E+00atm> (1)
9.40394696939804

>  <r_j_Free_Energy_(kcal/mol)_298.15K_1.00E+00atm> (1)
-25.8298028255957

>  <r_j_Internal_Energy_(kcal/mol)_298.15K_1.00E+00atm> (1)
8.81146138057076

>  <r_j_Heat_Capacity_(cal/mol/K)_298.15K_1.00E+00atm> (1)
52.368614941655

>  <r_j_ln(Q)_298.15K_1.00E+00atm> (1)
43.5956642873314

>  <r_j_Total_Internal_Energy_(au)_298.15K_1.00E+00atm> (1)
-2329.5362441245

>  <r_j_Total_Enthalpy_(au)_298.15K_1.00E+00atm> (1)
-2329.53529993861

>  <r_j_Total_Free_Energy_(au)_298.15K_1.00E+00atm> (1)
-2329.5914484933

>  <r_lp_tautomer_probability> (1)
1

>  <r_epik_Ionization_Penalty> (1)
  0.0000

>  <r_epik_Ionization_Penalty_Charging> (1)
  0.0000

>  <r_epik_Ionization_Penalty_Neutral> (1)
  0.0000

>  <r_epik_State_Penalty> (1)
  0.0000

>  <r_epik_Charging_Adjusted_Penalty> (1)
0

>  <i_epik_Tot_Q> (1)
0

>  <i_epik_Tot_abs_Q> (1)
0

>  <s_lp_Force_Field> (1)
S-OPLS

>  <r_lp_Energy> (1)
2.873236

>  <b_lp_Chiralities_Consistent> (1)
1

>  <s_epik_Chemistry_Notes> (1)
This compound has a N-S or N-O group and may undergo hydrolysis at high or low pH.

$$$$
