8630_Chloramben
                    3D
 Schrodinger Suite 2021-3.
 16 16  0  0  1  0            999 V2000
   -2.7490   -0.0642    0.0000 C   0  0  0  0  0  0
   -2.0570    1.1311    0.0000 C   0  0  0  0  0  0
   -0.6681    1.1930    0.0000 C   0  0  0  0  0  0
    0.0601   -0.0055    0.0000 C   0  0  0  0  0  0
   -0.6559   -1.2295    0.0000 C   0  0  0  0  0  0
   -2.0510   -1.2853    0.0000 C   0  0  0  0  0  0
   -2.9650   -2.5927    0.0000 C   0  0  0  0  0  0
   -2.3624   -3.6829   -0.0001 O   0  0  0  0  0  0
   -4.1920   -2.3388    0.0001 O   0  5  0  0  0  0
    0.3599   -2.6938    0.0000 Cl  0  0  0  0  0  0
    1.4404    0.0319    0.0000 N   0  0  0  0  0  0
   -2.9556    2.6751    0.0000 Cl  0  0  0  0  0  0
   -3.8303   -0.1289    0.0000 H   0  0  0  0  0  0
   -0.1521    2.1480    0.0000 H   0  0  0  0  0  0
    1.9588   -0.8283    0.0000 H   0  0  0  0  0  0
    1.9245    0.9104   -0.0001 H   0  0  0  0  0  0
  1  6  1  0  0  0
  1  2  2  0  0  0
  1 13  1  0  0  0
  2  3  1  0  0  0
  2 12  1  0  0  0
  3  4  2  0  0  0
  3 14  1  0  0  0
  4  5  1  0  0  0
  4 11  1  0  0  0
  5  6  2  0  0  0
  5 10  1  0  0  0
  6  7  1  0  0  0
  7  8  2  0  0  0
  7  9  1  0  0  0
 11 15  1  0  0  0
 11 16  1  0  0  0
M  END
>  <i_m_Spin_multiplicity> (1)
1

>  <s_j_Task> (1)
Single Point

>  <s_j_QM_Method> (1)
DFT(b3lyp-d3)

>  <s_j_QM_Basis> (1)
cc-pvtz(-f)

>  <i_j_Number_of_canonical_orbitals> (1)
315

>  <i_j_Geometry_convergence_category> (1)
0

>  <r_j_Gas_Phase_Energy> (1)
-1395.05643191718

>  <r_j_Final_Energy> (1)
-1395.05643191718

>  <r_j_HOMO> (1)
-0.0698899206566702

>  <r_j_LUMO> (1)
0.097062639293886

>  <r_j_Polarizability> (1)
123.060931114091

>  <r_j_QM_Dipole_(debye)> (1)
11.1756205467306

>  <r_j_QM_Dipole_X_(debye)> (1)
8.00287211198896

>  <r_j_QM_Dipole_Y_(debye)> (1)
7.8005469384508

>  <r_j_QM_Dipole_Z_(debye)> (1)
-0.000157106043408427

>  <r_j_Lowest_Frequency_(cm-1)> (1)
-478.346147973398

>  <r_j_Highest_Frequency_(cm-1)> (1)
3716.81485178694

>  <r_j_2nd_Lowest_Frequency_(cm-1)> (1)
59.2758679381098

>  <i_j_Num_Negative_Frequencies> (1)
1

>  <r_j_Zero_Point_Energy_(kcal/mol)> (1)
61.2918583025808

>  <r_j_Entropy_(cal/mol/K)_298.15K_1.00E+00atm> (1)
101.040085408282

>  <r_j_Enthalpy_(kcal/mol)_298.15K_1.00E+00atm> (1)
7.09547428020588

>  <r_j_Free_Energy_(kcal/mol)_298.15K_1.00E+00atm> (1)
-23.0296271842734

>  <r_j_Internal_Energy_(kcal/mol)_298.15K_1.00E+00atm> (1)
6.5029886913786

>  <r_j_Heat_Capacity_(cal/mol/K)_298.15K_1.00E+00atm> (1)
38.5012290953285

>  <r_j_ln(Q)_298.15K_1.00E+00atm> (1)
38.8695144971486

>  <r_j_Total_Internal_Energy_(au)_298.15K_1.00E+00atm> (1)
-1394.94839395085

>  <r_j_Total_Enthalpy_(au)_298.15K_1.00E+00atm> (1)
-1394.94744976496

>  <r_j_Total_Free_Energy_(au)_298.15K_1.00E+00atm> (1)
-1394.99545717027

>  <r_lp_tautomer_probability> (1)
1

>  <r_epik_Ionization_Penalty> (1)
  0.0000

>  <r_epik_Ionization_Penalty_Charging> (1)
  0.0000

>  <r_epik_Ionization_Penalty_Neutral> (1)
  0.0000

>  <r_epik_State_Penalty> (1)
  0.0000

>  <r_epik_Charging_Adjusted_Penalty> (1)
1.88439097527222e-05

>  <i_epik_Tot_Q> (1)
-1

>  <i_epik_Tot_abs_Q> (1)
1

>  <s_lp_Force_Field> (1)
S-OPLS

>  <r_lp_Energy> (1)
25.380798

>  <b_lp_Chiralities_Consistent> (1)
1

$$$$
