8655_Syringaldehyde
                    3D
 Schrodinger Suite 2021-3.
 23 23  0  0  1  0            999 V2000
   -0.7149    1.1555   -0.0001 C   0  0  0  0  0  0
    0.0601   -0.0333    0.0000 O   0  0  0  0  0  0
    1.4158    0.0924    0.0000 C   0  0  0  0  0  0
    2.1220    1.2964    0.0000 C   0  0  0  0  0  0
    3.5241    1.2942    0.0000 C   0  0  0  0  0  0
    4.2416    0.0895    0.0000 C   0  0  0  0  0  0
    3.5392   -1.1060    0.0000 C   0  0  0  0  0  0
    2.1294   -1.1198    0.0000 C   0  0  0  0  0  0
    1.4506   -2.2907    0.0001 O   0  0  0  0  0  0
    4.0839   -2.3661    0.0000 O   0  0  0  0  0  0
    5.5024   -2.4785   -0.0001 C   0  0  0  0  0  0
    4.2552    2.5721    0.0000 C   0  0  0  0  0  0
    5.4699    2.6798    0.0000 O   0  0  0  0  0  0
   -1.7570    0.8331   -0.0001 H   0  0  0  0  0  0
   -0.5250    1.7639   -0.8945 H   0  0  0  0  0  0
   -0.5251    1.7640    0.8942 H   0  0  0  0  0  0
    1.5962    2.2446    0.0000 H   0  0  0  0  0  0
    5.3237    0.1340    0.0000 H   0  0  0  0  0  0
    2.1145   -2.9989    0.0001 H   0  0  0  0  0  0
    5.7214   -3.5470   -0.0001 H   0  0  0  0  0  0
    5.9376   -2.0154    0.8939 H   0  0  0  0  0  0
    5.9375   -2.0154   -0.8941 H   0  0  0  0  0  0
    3.6047    3.4764    0.0000 H   0  0  0  0  0  0
  1  2  1  0  0  0
  1 14  1  0  0  0
  1 15  1  0  0  0
  1 16  1  0  0  0
  2  3  1  0  0  0
  3  8  1  0  0  0
  3  4  2  0  0  0
  4  5  1  0  0  0
  4 17  1  0  0  0
  5  6  2  0  0  0
  5 12  1  0  0  0
  6  7  1  0  0  0
  6 18  1  0  0  0
  7  8  2  0  0  0
  7 10  1  0  0  0
  8  9  1  0  0  0
  9 19  1  0  0  0
 10 11  1  0  0  0
 11 20  1  0  0  0
 11 21  1  0  0  0
 11 22  1  0  0  0
 12 13  2  0  0  0
 12 23  1  0  0  0
M  END
>  <i_m_Spin_multiplicity> (1)
1

>  <s_j_Task> (1)
Single Point

>  <s_j_QM_Method> (1)
DFT(b3lyp-d3)

>  <s_j_QM_Basis> (1)
cc-pvtz(-f)

>  <i_j_Number_of_canonical_orbitals> (1)
382

>  <i_j_Geometry_convergence_category> (1)
0

>  <r_j_Gas_Phase_Energy> (1)
-650.078874376831

>  <r_j_Final_Energy> (1)
-650.078874376831

>  <r_j_HOMO> (1)
-0.222052043120935

>  <r_j_LUMO> (1)
-0.0575643928209565

>  <r_j_Polarizability> (1)
125.957077164998

>  <r_j_QM_Dipole_(debye)> (1)
2.10016930669346

>  <r_j_QM_Dipole_X_(debye)> (1)
-1.29872479569998

>  <r_j_QM_Dipole_Y_(debye)> (1)
-1.65046204875699

>  <r_j_QM_Dipole_Z_(debye)> (1)
-0.000217771000094881

>  <r_j_Lowest_Frequency_(cm-1)> (1)
72.9744679931145

>  <r_j_Highest_Frequency_(cm-1)> (1)
3703.15866279251

>  <r_j_2nd_Lowest_Frequency_(cm-1)> (1)
108.97677740581

>  <i_j_Num_Negative_Frequencies> (1)
0

>  <r_j_Zero_Point_Energy_(kcal/mol)> (1)
112.303195283405

>  <r_j_Entropy_(cal/mol/K)_298.15K_1.00E+00atm> (1)
106.568130025537

>  <r_j_Enthalpy_(kcal/mol)_298.15K_1.00E+00atm> (1)
8.15799959517818

>  <r_j_Free_Energy_(kcal/mol)_298.15K_1.00E+00atm> (1)
-23.6152883719357

>  <r_j_Internal_Energy_(kcal/mol)_298.15K_1.00E+00atm> (1)
7.5655140063509

>  <r_j_Heat_Capacity_(cal/mol/K)_298.15K_1.00E+00atm> (1)
45.8192891525335

>  <r_j_ln(Q)_298.15K_1.00E+00atm> (1)
39.8579962403444

>  <r_j_Total_Internal_Energy_(au)_298.15K_1.00E+00atm> (1)
-649.887851428141

>  <r_j_Total_Enthalpy_(au)_298.15K_1.00E+00atm> (1)
-649.886907242249

>  <r_j_Total_Free_Energy_(au)_298.15K_1.00E+00atm> (1)
-649.93754119996

>  <r_epik_Ionization_Penalty> (1)
  0.0992

>  <r_epik_Ionization_Penalty_Charging> (1)
  0.0000

>  <r_epik_Ionization_Penalty_Neutral> (1)
  0.0992

>  <r_epik_State_Penalty> (1)
  0.0892

>  <r_epik_Charging_Adjusted_Penalty> (1)
0.089240396496964

>  <i_epik_Tot_Q> (1)
0

>  <i_epik_Tot_abs_Q> (1)
0

>  <s_lp_Force_Field> (1)
S-OPLS

>  <r_lp_Energy> (1)
17.036403

>  <b_lp_Chiralities_Consistent> (1)
1

$$$$
