867_Malonic acid
                    3D
 Schrodinger Suite 2021-3.
 10  9  0  0  1  0            999 V2000
    0.0028    0.0035    0.1963 C   0  0  0  0  0  0
    1.6298   -0.0029    0.0701 C   0  0  0  0  0  0
    2.1039   -1.1455    0.2176 O   0  0  0  0  0  0
    2.1579    1.1047   -0.1466 O   0  5  0  0  0  0
   -0.5742    1.3527   -0.0193 C   0  0  0  0  0  0
   -1.0066    1.8182   -1.0613 O   0  0  0  0  0  0
   -0.5614    2.1203    1.1179 O   0  0  0  0  0  0
   -0.3929   -0.6839   -0.5540 H   0  0  0  0  0  0
   -0.2358   -0.3691    1.1960 H   0  0  0  0  0  0
   -0.8337    2.9987    0.8071 H   0  0  0  0  0  0
  1  2  1  0  0  0
  1  5  1  0  0  0
  1  8  1  0  0  0
  1  9  1  0  0  0
  2  3  2  0  0  0
  2  4  1  0  0  0
  5  6  2  0  0  0
  5  7  1  0  0  0
  7 10  1  0  0  0
M  END
>  <i_m_Spin_multiplicity> (1)
1

>  <s_j_Task> (1)
Single Point

>  <s_j_QM_Method> (1)
DFT(b3lyp-d3)

>  <s_j_QM_Basis> (1)
cc-pvtz(-f)

>  <i_j_Number_of_canonical_orbitals> (1)
188

>  <i_j_Geometry_convergence_category> (1)
3

>  <r_j_Gas_Phase_Energy> (1)
-417.26145512536

>  <r_j_Final_Energy> (1)
-417.26145512536

>  <r_j_HOMO> (1)
-0.0514664846648125

>  <r_j_LUMO> (1)
0.15875568799066

>  <r_j_Polarizability> (1)
52.6768529473838

>  <r_j_QM_Dipole_(debye)> (1)
5.74937867363879

>  <r_j_QM_Dipole_X_(debye)> (1)
-5.0499074426976

>  <r_j_QM_Dipole_Y_(debye)> (1)
2.33080481396868

>  <r_j_QM_Dipole_Z_(debye)> (1)
1.45641301568628

>  <r_j_Lowest_Frequency_(cm-1)> (1)
85.6184981286342

>  <r_j_Highest_Frequency_(cm-1)> (1)
3705.9837447704

>  <r_j_2nd_Lowest_Frequency_(cm-1)> (1)
118.033838036085

>  <i_j_Num_Negative_Frequencies> (1)
0

>  <r_j_Zero_Point_Energy_(kcal/mol)> (1)
39.8322966907178

>  <r_j_Entropy_(cal/mol/K)_298.15K_1.00E+00atm> (1)
81.2157942674292

>  <r_j_Enthalpy_(kcal/mol)_298.15K_1.00E+00atm> (1)
4.70596745310076

>  <r_j_Free_Energy_(kcal/mol)_298.15K_1.00E+00atm> (1)
-19.5085216077333

>  <r_j_Internal_Energy_(kcal/mol)_298.15K_1.00E+00atm> (1)
4.11348186427349

>  <r_j_Heat_Capacity_(cal/mol/K)_298.15K_1.00E+00atm> (1)
22.3223676417304

>  <r_j_ln(Q)_298.15K_1.00E+00atm> (1)
32.9265757270942

>  <r_j_Total_Internal_Energy_(au)_298.15K_1.00E+00atm> (1)
-417.191423069023

>  <r_j_Total_Enthalpy_(au)_298.15K_1.00E+00atm> (1)
-417.19047888313

>  <r_j_Total_Free_Energy_(au)_298.15K_1.00E+00atm> (1)
-417.229067127959

>  <r_epik_Ionization_Penalty> (1)
  1.9989

>  <r_epik_Ionization_Penalty_Charging> (1)
  0.0001

>  <r_epik_Ionization_Penalty_Neutral> (1)
  1.9988

>  <r_epik_State_Penalty> (1)
  2.1274

>  <r_epik_Charging_Adjusted_Penalty> (1)
2.1275

>  <i_epik_Tot_Q> (1)
-1

>  <i_epik_Tot_abs_Q> (1)
1

>  <s_lp_Force_Field> (1)
S-OPLS

>  <r_lp_Energy> (1)
-2.70245

>  <b_lp_Chiralities_Consistent> (1)
1

$$$$
