86821_Sitosterol
                    3D
 Schrodinger Suite 2021-3.
 80 83  0  0  1  0            999 V2000
   -1.0343    1.7576    2.3665 C   0  0  0  0  0  0
   -0.3516    2.4724    1.1945 C   0  0  0  0  0  0
   -0.4775    1.7555   -0.1713 C   0  0  0  0  0  0
   -0.1116    0.2559   -0.0778 C   0  0  0  0  0  0
    1.3545   -0.0344    0.2734 C   0  0  0  0  0  0
    1.6601   -1.5380    0.4724 C   0  0  0  0  0  0
    1.0841   -2.0262    1.8126 C   0  0  0  0  0  0
    3.1792   -1.8049    0.2754 C   0  0  0  0  0  0
    4.0648   -1.1940    1.3940 C   0  0  0  0  0  0
    4.4430   -2.3559    2.3458 C   0  0  0  0  0  0
    3.9601   -3.6748    1.6791 C   0  0  0  0  0  0
    3.6495   -3.2985    0.1940 C   0  0  0  0  0  0
    4.9579   -3.3455   -0.6409 C   0  0  0  0  0  0
    5.8017   -4.6129   -0.4372 C   0  0  0  0  0  0
    6.2147   -4.7451    1.0426 C   0  0  0  0  0  0
    4.9386   -4.8492    1.9090 C   0  0  0  0  0  0
    4.2703   -6.2251    1.7360 C   0  0  0  0  0  0
    5.2626   -7.3427    1.8791 C   0  0  0  0  0  0
    6.5880   -7.2040    1.7202 C   0  0  0  0  0  0
    7.2544   -5.8687    1.3831 C   0  0  0  0  0  0
    8.0636   -5.4476    2.6529 C   0  0  0  0  0  0
    8.9957   -6.5479    3.1915 C   0  0  0  0  0  0
    8.2636   -7.8838    3.4069 C   0  0  0  0  0  0
    7.5332   -8.3170    2.1122 C   0  0  0  0  0  0
    7.3427   -7.7985    4.4920 O   0  0  0  0  0  0
    8.2449   -6.0443    0.2083 C   0  0  0  0  0  0
    2.6072   -4.2025   -0.4871 C   0  0  0  0  0  0
    0.3132    2.5067   -1.2800 C   0  0  0  0  0  0
   -0.1868    3.9493   -1.4679 C   0  0  0  0  0  0
    0.2652    1.7738   -2.6309 C   0  0  0  0  0  0
   -1.0323    2.3896    3.2604 H   0  0  0  0  0  0
   -0.5318    0.8210    2.6276 H   0  0  0  0  0  0
   -2.0782    1.5191    2.1305 H   0  0  0  0  0  0
   -0.7839    3.4744    1.1074 H   0  0  0  0  0  0
    0.7103    2.6248    1.4309 H   0  0  0  0  0  0
   -1.5410    1.7951   -0.4591 H   0  0  0  0  0  0
   -0.7706   -0.2134    0.6597 H   0  0  0  0  0  0
   -0.3519   -0.2370   -1.0269 H   0  0  0  0  0  0
    1.9958    0.3591   -0.5249 H   0  0  0  0  0  0
    1.6350    0.5156    1.1806 H   0  0  0  0  0  0
    1.1336   -2.0717   -0.3303 H   0  0  0  0  0  0
    1.6256   -1.5909    2.6597 H   0  0  0  0  0  0
    1.1279   -3.1128    1.9123 H   0  0  0  0  0  0
    0.0336   -1.7377    1.9157 H   0  0  0  0  0  0
    3.4243   -1.3353   -0.6874 H   0  0  0  0  0  0
    4.9672   -0.7539    0.9586 H   0  0  0  0  0  0
    3.5590   -0.3790    1.9192 H   0  0  0  0  0  0
    5.5241   -2.3782    2.5192 H   0  0  0  0  0  0
    3.9803   -2.2410    3.3314 H   0  0  0  0  0  0
    3.0147   -3.9623    2.1521 H   0  0  0  0  0  0
    4.7036   -3.2276   -1.7022 H   0  0  0  0  0  0
    5.5895   -2.4853   -0.3844 H   0  0  0  0  0  0
    5.2598   -5.5076   -0.7675 H   0  0  0  0  0  0
    6.6804   -4.5382   -1.0827 H   0  0  0  0  0  0
    6.7169   -3.7996    1.2957 H   0  0  0  0  0  0
    5.2444   -4.7964    2.9631 H   0  0  0  0  0  0
    3.4784   -6.3381    2.4884 H   0  0  0  0  0  0
    3.7575   -6.3031    0.7710 H   0  0  0  0  0  0
    4.8701   -8.3233    2.1477 H   0  0  0  0  0  0
    8.6460   -4.5458    2.4254 H   0  0  0  0  0  0
    7.3568   -5.1722    3.4444 H   0  0  0  0  0  0
    9.8349   -6.7092    2.5033 H   0  0  0  0  0  0
    9.4275   -6.2307    4.1465 H   0  0  0  0  0  0
    8.9865   -8.6553    3.6964 H   0  0  0  0  0  0
    6.9852   -9.2443    2.3078 H   0  0  0  0  0  0
    8.2722   -8.5270    1.3308 H   0  0  0  0  0  0
    6.5347   -7.3945    4.1402 H   0  0  0  0  0  0
    8.6695   -5.0753   -0.0754 H   0  0  0  0  0  0
    7.7561   -6.4752   -0.6693 H   0  0  0  0  0  0
    9.0800   -6.6967    0.4688 H   0  0  0  0  0  0
    3.0177   -5.1849   -0.7323 H   0  0  0  0  0  0
    2.2755   -3.7550   -1.4312 H   0  0  0  0  0  0
    1.7230   -4.3642    0.1358 H   0  0  0  0  0  0
    1.3654    2.5596   -0.9636 H   0  0  0  0  0  0
   -1.2546    3.9597   -1.7205 H   0  0  0  0  0  0
    0.3509    4.4414   -2.2852 H   0  0  0  0  0  0
   -0.0489    4.5612   -0.5729 H   0  0  0  0  0  0
   -0.7721    1.6100   -2.9487 H   0  0  0  0  0  0
    0.7611    0.7999   -2.5966 H   0  0  0  0  0  0
    0.7599    2.3648   -3.4088 H   0  0  0  0  0  0
  1  2  1  0  0  0
  1 31  1  0  0  0
  1 32  1  0  0  0
  1 33  1  0  0  0
  2  3  1  0  0  0
  2 34  1  0  0  0
  2 35  1  0  0  0
  3  4  1  0  0  0
  3 28  1  0  0  0
  3 36  1  0  0  0
  4  5  1  0  0  0
  4 37  1  0  0  0
  4 38  1  0  0  0
  5  6  1  0  0  0
  5 39  1  0  0  0
  5 40  1  0  0  0
  6  7  1  0  0  0
  6  8  1  0  0  0
  6 41  1  0  0  0
  7 42  1  0  0  0
  7 43  1  0  0  0
  7 44  1  0  0  0
  8 12  1  0  0  0
  8  9  1  0  0  0
  8 45  1  0  0  0
  9 10  1  0  0  0
  9 46  1  0  0  0
  9 47  1  0  0  0
 10 11  1  0  0  0
 10 48  1  0  0  0
 10 49  1  0  0  0
 11 16  1  0  0  0
 11 12  1  0  0  0
 11 50  1  0  0  0
 12 13  1  0  0  0
 12 27  1  0  0  0
 13 14  1  0  0  0
 13 51  1  0  0  0
 13 52  1  0  0  0
 14 15  1  0  0  0
 14 53  1  0  0  0
 14 54  1  0  0  0
 15 20  1  0  0  0
 15 16  1  0  0  0
 15 55  1  0  0  0
 16 17  1  0  0  0
 16 56  1  0  0  0
 17 18  1  0  0  0
 17 57  1  0  0  0
 17 58  1  0  0  0
 18 19  2  0  0  0
 18 59  1  0  0  0
 19 24  1  0  0  0
 19 20  1  0  0  0
 20 21  1  0  0  0
 20 26  1  0  0  0
 21 22  1  0  0  0
 21 60  1  0  0  0
 21 61  1  0  0  0
 22 23  1  0  0  0
 22 62  1  0  0  0
 22 63  1  0  0  0
 23 24  1  0  0  0
 23 25  1  0  0  0
 23 64  1  0  0  0
 24 65  1  0  0  0
 24 66  1  0  0  0
 25 67  1  0  0  0
 26 68  1  0  0  0
 26 69  1  0  0  0
 26 70  1  0  0  0
 27 71  1  0  0  0
 27 72  1  0  0  0
 27 73  1  0  0  0
 28 29  1  0  0  0
 28 30  1  0  0  0
 28 74  1  0  0  0
 29 75  1  0  0  0
 29 76  1  0  0  0
 29 77  1  0  0  0
 30 78  1  0  0  0
 30 79  1  0  0  0
 30 80  1  0  0  0
M  END
>  <i_m_Spin_multiplicity> (1)
1

>  <s_j_Task> (1)
Single Point

>  <s_j_QM_Method> (1)
DFT(b3lyp-d3)

>  <s_j_QM_Basis> (1)
cc-pvtz(-f)

>  <i_j_Number_of_canonical_orbitals> (1)
1121

>  <i_j_Geometry_convergence_category> (1)
3

>  <r_j_Gas_Phase_Energy> (1)
-1210.92188260113

>  <r_j_Final_Energy> (1)
-1210.92188260113

>  <r_j_HOMO> (1)
-0.285439875204839

>  <r_j_LUMO> (1)
-0.0389054126906515

>  <r_j_Polarizability> (1)
331.974181635816

>  <r_j_QM_Dipole_(debye)> (1)
2.06968725562416

>  <r_j_QM_Dipole_X_(debye)> (1)
-0.264476695813167

>  <r_j_QM_Dipole_Y_(debye)> (1)
1.02459018426949

>  <r_j_QM_Dipole_Z_(debye)> (1)
-1.77872773851521

>  <r_j_Lowest_Frequency_(cm-1)> (1)
36.9494554279602

>  <r_j_Highest_Frequency_(cm-1)> (1)
3692.79377748218

>  <r_j_2nd_Lowest_Frequency_(cm-1)> (1)
42.0700634945255

>  <i_j_Num_Negative_Frequencies> (1)
0

>  <r_j_Zero_Point_Energy_(kcal/mol)> (1)
465.821384444123

>  <r_j_Entropy_(cal/mol/K)_298.15K_1.00E+00atm> (1)
176.323059332028

>  <r_j_Enthalpy_(kcal/mol)_298.15K_1.00E+00atm> (1)
18.9088075068821

>  <r_j_Free_Energy_(kcal/mol)_298.15K_1.00E+00atm> (1)
-33.661912632962

>  <r_j_Internal_Energy_(kcal/mol)_298.15K_1.00E+00atm> (1)
18.3163219180548

>  <r_j_Heat_Capacity_(cal/mol/K)_298.15K_1.00E+00atm> (1)
125.550793284871

>  <r_j_ln(Q)_298.15K_1.00E+00atm> (1)
56.8147365399892

>  <r_j_Total_Internal_Energy_(au)_298.15K_1.00E+00atm> (1)
-1210.15036005126

>  <r_j_Total_Enthalpy_(au)_298.15K_1.00E+00atm> (1)
-1210.14941586536

>  <r_j_Total_Free_Energy_(au)_298.15K_1.00E+00atm> (1)
-1210.2331926411

>  <r_lp_tautomer_probability> (1)
1

>  <r_epik_Ionization_Penalty> (1)
  0.0000

>  <r_epik_Ionization_Penalty_Charging> (1)
  0.0000

>  <r_epik_Ionization_Penalty_Neutral> (1)
  0.0000

>  <r_epik_State_Penalty> (1)
  0.0000

>  <r_epik_Charging_Adjusted_Penalty> (1)
0

>  <i_epik_Tot_Q> (1)
0

>  <i_epik_Tot_abs_Q> (1)
0

>  <s_lp_Force_Field> (1)
S-OPLS

>  <r_lp_Energy> (1)
48.589032

>  <b_lp_Chiralities_Consistent> (1)
1

$$$$
