8698_Butyl benzoate
                    3D
 Schrodinger Suite 2021-3.
 27 27  0  0  1  0            999 V2000
   -2.1115    1.4055    0.0008 C   0  0  0  0  0  0
   -0.5819    1.4749   -0.0002 C   0  0  0  0  0  0
    0.0702    0.0870    0.0002 C   0  0  0  0  0  0
    1.5864    0.1700   -0.0006 C   0  0  0  0  0  0
    2.0952   -1.1820   -0.0003 O   0  0  0  0  0  0
    3.4427   -1.3006   -0.0001 C   0  0  0  0  0  0
    4.1957   -0.3445    0.0000 O   0  0  0  0  0  0
    3.8875   -2.7233   -0.0001 C   0  0  0  0  0  0
    5.2656   -2.9750    0.0009 C   0  0  0  0  0  0
    5.7355   -4.2849    0.0010 C   0  0  0  0  0  0
    4.8317   -5.3500    0.0002 C   0  0  0  0  0  0
    3.4575   -5.1028   -0.0008 C   0  0  0  0  0  0
    2.9826   -3.7930   -0.0009 C   0  0  0  0  0  0
   -2.5568    2.4052    0.0004 H   0  0  0  0  0  0
   -2.4809    0.8747    0.8854 H   0  0  0  0  0  0
   -2.4820    0.8735   -0.8826 H   0  0  0  0  0  0
   -0.2393    2.0380   -0.8785 H   0  0  0  0  0  0
   -0.2382    2.0391    0.8769 H   0  0  0  0  0  0
   -0.2558   -0.4809    0.8805 H   0  0  0  0  0  0
   -0.2567   -0.4819   -0.8791 H   0  0  0  0  0  0
    1.9686    0.6945   -0.8832 H   0  0  0  0  0  0
    1.9695    0.6953    0.8812 H   0  0  0  0  0  0
    5.9460   -2.1302    0.0015 H   0  0  0  0  0  0
    6.8042   -4.4776    0.0017 H   0  0  0  0  0  0
    5.1983   -6.3725    0.0003 H   0  0  0  0  0  0
    2.7563   -5.9319   -0.0015 H   0  0  0  0  0  0
    1.9177   -3.5912   -0.0016 H   0  0  0  0  0  0
  1  2  1  0  0  0
  1 14  1  0  0  0
  1 15  1  0  0  0
  1 16  1  0  0  0
  2  3  1  0  0  0
  2 17  1  0  0  0
  2 18  1  0  0  0
  3  4  1  0  0  0
  3 19  1  0  0  0
  3 20  1  0  0  0
  4  5  1  0  0  0
  4 21  1  0  0  0
  4 22  1  0  0  0
  5  6  1  0  0  0
  6  7  2  0  0  0
  6  8  1  0  0  0
  8 13  1  0  0  0
  8  9  2  0  0  0
  9 10  1  0  0  0
  9 23  1  0  0  0
 10 11  2  0  0  0
 10 24  1  0  0  0
 11 12  1  0  0  0
 11 25  1  0  0  0
 12 13  2  0  0  0
 12 26  1  0  0  0
 13 27  1  0  0  0
M  END
>  <i_m_Spin_multiplicity> (1)
1

>  <s_j_Task> (1)
Single Point

>  <s_j_QM_Method> (1)
DFT(b3lyp-d3)

>  <s_j_QM_Basis> (1)
cc-pvtz(-f)

>  <i_j_Number_of_canonical_orbitals> (1)
419

>  <i_j_Geometry_convergence_category> (1)
3

>  <r_j_Gas_Phase_Energy> (1)
-578.287060244797

>  <r_j_Final_Energy> (1)
-578.287060244797

>  <r_j_HOMO> (1)
-0.285118667676153

>  <r_j_LUMO> (1)
-0.0715808124650181

>  <r_j_Polarizability> (1)
134.817962686818

>  <r_j_QM_Dipole_(debye)> (1)
2.05807206304004

>  <r_j_QM_Dipole_X_(debye)> (1)
-1.62093423342205

>  <r_j_QM_Dipole_Y_(debye)> (1)
-1.26816116120147

>  <r_j_QM_Dipole_Z_(debye)> (1)
-0.000311137445939987

>  <r_j_Lowest_Frequency_(cm-1)> (1)
64.8617252014422

>  <r_j_Highest_Frequency_(cm-1)> (1)
3168.4082905815

>  <r_j_2nd_Lowest_Frequency_(cm-1)> (1)
76.1780358501669

>  <i_j_Num_Negative_Frequencies> (1)
0

>  <r_j_Zero_Point_Energy_(kcal/mol)> (1)
143.22733806034

>  <r_j_Entropy_(cal/mol/K)_298.15K_1.00E+00atm> (1)
108.022462378602

>  <r_j_Enthalpy_(kcal/mol)_298.15K_1.00E+00atm> (1)
8.18737207967098

>  <r_j_Free_Energy_(kcal/mol)_298.15K_1.00E+00atm> (1)
-24.0195250785093

>  <r_j_Internal_Energy_(kcal/mol)_298.15K_1.00E+00atm> (1)
7.59488649084371

>  <r_j_Heat_Capacity_(cal/mol/K)_298.15K_1.00E+00atm> (1)
46.3395981818044

>  <r_j_ln(Q)_298.15K_1.00E+00atm> (1)
40.5402688798759

>  <r_j_Total_Internal_Energy_(au)_298.15K_1.00E+00atm> (1)
-578.046709729368

>  <r_j_Total_Enthalpy_(au)_298.15K_1.00E+00atm> (1)
-578.045765543476

>  <r_j_Total_Free_Energy_(au)_298.15K_1.00E+00atm> (1)
-578.097090501421

>  <r_lp_tautomer_probability> (1)
1

>  <r_epik_Ionization_Penalty> (1)
  0.0000

>  <r_epik_Ionization_Penalty_Charging> (1)
  0.0000

>  <r_epik_Ionization_Penalty_Neutral> (1)
  0.0000

>  <r_epik_State_Penalty> (1)
  0.0000

>  <r_epik_Charging_Adjusted_Penalty> (1)
0

>  <i_epik_Tot_Q> (1)
0

>  <i_epik_Tot_abs_Q> (1)
0

>  <s_lp_Force_Field> (1)
S-OPLS

>  <r_lp_Energy> (1)
8.181465

>  <b_lp_Chiralities_Consistent> (1)
1

>  <s_epik_Chemistry_Notes> (1)
This compound has an ester and may undergo hydrolysis at high or low pH.

$$$$
