87244_Ethyltriacetoxysilane
                    3D
 Schrodinger Suite 2021-3.
 29 28  0  0  1  0            999 V2000
   -0.5389    1.5336    0.3527 C   0  0  0  0  0  0
    0.0190    0.3419   -0.4482 C   0  0  0  0  0  0
    1.8081   -0.0247   -0.1426 Si  0  0  0  0  0  0
    2.1516   -0.7414    1.3385 O   0  0  0  0  0  0
    2.2791   -0.0281    2.4896 C   0  0  0  0  0  0
    1.8879    1.1137    2.5949 O   0  0  0  0  0  0
    2.9745   -0.8204    3.5603 C   0  0  0  0  0  0
    2.4860   -1.0733   -1.2822 O   0  0  0  0  0  0
    2.0032   -2.3376   -1.4241 C   0  0  0  0  0  0
    1.0250   -2.7305   -0.8279 O   0  0  0  0  0  0
    2.8279   -3.1485   -2.3873 C   0  0  0  0  0  0
    2.6640    1.4051   -0.3515 O   0  0  0  0  0  0
    3.9100    1.6640    0.1394 C   0  0  0  0  0  0
    4.5904    0.8304    0.6905 O   0  0  0  0  0  0
    4.2963    3.1021   -0.0801 C   0  0  0  0  0  0
   -1.6033    1.6762    0.1408 H   0  0  0  0  0  0
   -0.0151    2.4588    0.0958 H   0  0  0  0  0  0
   -0.4180    1.3850    1.4285 H   0  0  0  0  0  0
   -0.5300   -0.5808   -0.2316 H   0  0  0  0  0  0
   -0.0956    0.5160   -1.5263 H   0  0  0  0  0  0
    4.0202   -0.9424    3.2601 H   0  0  0  0  0  0
    2.5340   -1.8169    3.6448 H   0  0  0  0  0  0
    2.9206   -0.2895    4.5101 H   0  0  0  0  0  0
    3.8481   -3.2378   -2.0019 H   0  0  0  0  0  0
    2.8884   -2.6328   -3.3499 H   0  0  0  0  0  0
    2.3849   -4.1359   -2.5111 H   0  0  0  0  0  0
    3.6200    3.7404    0.4970 H   0  0  0  0  0  0
    4.1791    3.3669   -1.1344 H   0  0  0  0  0  0
    5.3246    3.2606    0.2428 H   0  0  0  0  0  0
  1  2  1  0  0  0
  1 16  1  0  0  0
  1 17  1  0  0  0
  1 18  1  0  0  0
  2  3  1  0  0  0
  2 19  1  0  0  0
  2 20  1  0  0  0
  3  4  1  0  0  0
  3  8  1  0  0  0
  3 12  1  0  0  0
  4  5  1  0  0  0
  5  6  2  0  0  0
  5  7  1  0  0  0
  7 21  1  0  0  0
  7 22  1  0  0  0
  7 23  1  0  0  0
  8  9  1  0  0  0
  9 10  2  0  0  0
  9 11  1  0  0  0
 11 24  1  0  0  0
 11 25  1  0  0  0
 11 26  1  0  0  0
 12 13  1  0  0  0
 13 14  2  0  0  0
 13 15  1  0  0  0
 15 27  1  0  0  0
 15 28  1  0  0  0
 15 29  1  0  0  0
M  END
>  <i_m_Spin_multiplicity> (1)
1

>  <s_j_Task> (1)
Single Point

>  <s_j_QM_Method> (1)
DFT(b3lyp-d3)

>  <s_j_QM_Basis> (1)
cc-pvtz(-f)

>  <i_j_Number_of_canonical_orbitals> (1)
475

>  <i_j_Geometry_convergence_category> (1)
0

>  <r_j_Gas_Phase_Energy> (1)
-1054.65554020181

>  <r_j_Final_Energy> (1)
-1054.65554020181

>  <r_j_HOMO> (1)
-0.281842262491958

>  <r_j_LUMO> (1)
-0.0232854928600127

>  <r_j_Polarizability> (1)
130.171108585055

>  <r_j_QM_Dipole_(debye)> (1)
1.86503431780998

>  <r_j_QM_Dipole_X_(debye)> (1)
0.695157480022111

>  <r_j_QM_Dipole_Y_(debye)> (1)
0.265020644306948

>  <r_j_QM_Dipole_Z_(debye)> (1)
-1.71022605016687

>  <r_j_Lowest_Frequency_(cm-1)> (1)
54.2028368876446

>  <r_j_Highest_Frequency_(cm-1)> (1)
3120.55834535741

>  <r_j_2nd_Lowest_Frequency_(cm-1)> (1)
64.6345218662299

>  <i_j_Num_Negative_Frequencies> (1)
0

>  <r_j_Zero_Point_Energy_(kcal/mol)> (1)
139.879378909013

>  <r_j_Entropy_(cal/mol/K)_298.15K_1.00E+00atm> (1)
133.58476035022

>  <r_j_Enthalpy_(kcal/mol)_298.15K_1.00E+00atm> (1)
11.7691900521395

>  <r_j_Free_Energy_(kcal/mol)_298.15K_1.00E+00atm> (1)
-28.0591062462788

>  <r_j_Internal_Energy_(kcal/mol)_298.15K_1.00E+00atm> (1)
11.1767044633122

>  <r_j_Heat_Capacity_(cal/mol/K)_298.15K_1.00E+00atm> (1)
63.4675674972471

>  <r_j_ln(Q)_298.15K_1.00E+00atm> (1)
47.3582932233289

>  <r_j_Total_Internal_Energy_(au)_298.15K_1.00E+00atm> (1)
-1054.41481700862

>  <r_j_Total_Enthalpy_(au)_298.15K_1.00E+00atm> (1)
-1054.41387282273

>  <r_j_Total_Free_Energy_(au)_298.15K_1.00E+00atm> (1)
-1054.47734325338

>  <r_lp_tautomer_probability> (1)
1

>  <r_epik_Ionization_Penalty> (1)
  0.0000

>  <r_epik_Ionization_Penalty_Charging> (1)
  0.0000

>  <r_epik_Ionization_Penalty_Neutral> (1)
  0.0000

>  <r_epik_State_Penalty> (1)
  0.0000

>  <r_epik_Charging_Adjusted_Penalty> (1)
0

>  <i_epik_Tot_Q> (1)
0

>  <i_epik_Tot_abs_Q> (1)
0

>  <s_lp_Force_Field> (1)
S-OPLS

>  <r_lp_Energy> (1)
-20.035093

>  <b_lp_Chiralities_Consistent> (1)
1

$$$$
