87639_1-triacontene
                    3D
 Schrodinger Suite 2021-3.
 90 89  0  0  1  0            999 V2000
   -1.8184   10.8145   -2.2889 C   0  0  0  0  0  0
   -2.6395   10.0453   -3.3304 C   0  0  0  0  0  0
   -3.7640    9.1839   -2.7340 C   0  0  0  0  0  0
   -3.2811    8.0270   -1.8483 C   0  0  0  0  0  0
   -4.4224    7.1184   -1.3759 C   0  0  0  0  0  0
   -3.9548    5.9392   -0.5141 C   0  0  0  0  0  0
   -5.0998    4.9982   -0.1136 C   0  0  0  0  0  0
   -4.6536    3.7447    0.6547 C   0  0  0  0  0  0
   -4.1737    4.0065    2.0911 C   0  0  0  0  0  0
   -3.6751    2.7354    2.8015 C   0  0  0  0  0  0
   -2.2702    2.2953    2.3640 C   0  0  0  0  0  0
   -1.8932    0.8861    2.8360 C   0  0  0  0  0  0
   -0.4396    0.5121    2.5195 C   0  0  0  0  0  0
   -0.1292   -0.9769    2.7136 C   0  0  0  0  0  0
    1.3506   -1.3195    2.4978 C   0  0  0  0  0  0
    1.6209   -2.8232    2.3682 C   0  0  0  0  0  0
    3.1107   -3.1635    2.2274 C   0  0  0  0  0  0
    3.3662   -4.5919    1.7322 C   0  0  0  0  0  0
    4.8593   -4.9481    1.6432 C   0  0  0  0  0  0
    5.1672   -6.1667    0.7547 C   0  0  0  0  0  0
    4.9595   -5.8804   -0.7385 C   0  0  0  0  0  0
    5.3436   -7.0287   -1.6791 C   0  0  0  0  0  0
    5.0987   -6.6589   -3.1473 C   0  0  0  0  0  0
    5.5470   -7.7199   -4.1599 C   0  0  0  0  0  0
    5.2008   -7.3645   -5.6166 C   0  0  0  0  0  0
    5.8855   -6.0911   -6.1317 C   0  0  0  0  0  0
    5.5064   -5.7270   -7.5715 C   0  0  0  0  0  0
    6.1627   -4.4130   -8.0374 C   0  0  0  0  0  0
    5.7767   -4.0246   -9.4372 C   0  0  0  0  0  0
    5.1296   -2.9090   -9.7754 C   0  0  0  0  0  0
   -1.0712   11.4557   -2.7681 H   0  0  0  0  0  0
   -1.2859   10.1389   -1.6117 H   0  0  0  0  0  0
   -2.4642   11.4553   -1.6767 H   0  0  0  0  0  0
   -3.0796   10.7602   -4.0375 H   0  0  0  0  0  0
   -1.9715    9.4046   -3.9226 H   0  0  0  0  0  0
   -4.4433    9.8252   -2.1538 H   0  0  0  0  0  0
   -4.3657    8.7702   -3.5550 H   0  0  0  0  0  0
   -2.5483    7.4266   -2.4072 H   0  0  0  0  0  0
   -2.7474    8.4196   -0.9728 H   0  0  0  0  0  0
   -5.1547    7.7146   -0.8126 H   0  0  0  0  0  0
   -4.9605    6.7316   -2.2535 H   0  0  0  0  0  0
   -3.1976    5.3649   -1.0678 H   0  0  0  0  0  0
   -3.4487    6.3232    0.3815 H   0  0  0  0  0  0
   -5.8374    5.5525    0.4846 H   0  0  0  0  0  0
   -5.6258    4.6844   -1.0256 H   0  0  0  0  0  0
   -5.4903    3.0343    0.6988 H   0  0  0  0  0  0
   -3.8630    3.2418    0.0812 H   0  0  0  0  0  0
   -3.3721    4.7573    2.0941 H   0  0  0  0  0  0
   -5.0042    4.4464    2.6592 H   0  0  0  0  0  0
   -3.6720    2.8921    3.8880 H   0  0  0  0  0  0
   -4.3892    1.9194    2.6173 H   0  0  0  0  0  0
   -2.1907    2.3283    1.2691 H   0  0  0  0  0  0
   -1.5354    3.0219    2.7392 H   0  0  0  0  0  0
   -2.0667    0.7949    3.9177 H   0  0  0  0  0  0
   -2.5696    0.1612    2.3605 H   0  0  0  0  0  0
   -0.2131    0.7848    1.4785 H   0  0  0  0  0  0
    0.2352    1.1172    3.1415 H   0  0  0  0  0  0
   -0.4368   -1.2957    3.7196 H   0  0  0  0  0  0
   -0.7441   -1.5593    2.0122 H   0  0  0  0  0  0
    1.7081   -0.8206    1.5853 H   0  0  0  0  0  0
    1.9468   -0.9015    3.3213 H   0  0  0  0  0  0
    1.2006   -3.3565    3.2324 H   0  0  0  0  0  0
    1.0786   -3.2009    1.4892 H   0  0  0  0  0  0
    3.5755   -2.4631    1.5184 H   0  0  0  0  0  0
    3.6193   -2.9997    3.1879 H   0  0  0  0  0  0
    2.8568   -5.3144    2.3853 H   0  0  0  0  0  0
    2.8961   -4.6975    0.7460 H   0  0  0  0  0  0
    5.4141   -4.0836    1.2504 H   0  0  0  0  0  0
    5.2471   -5.1172    2.6561 H   0  0  0  0  0  0
    6.2083   -6.4773    0.9150 H   0  0  0  0  0  0
    4.5435   -7.0187    1.0607 H   0  0  0  0  0  0
    3.9110   -5.6127   -0.9240 H   0  0  0  0  0  0
    5.5467   -4.9909   -1.0100 H   0  0  0  0  0  0
    6.4029   -7.2850   -1.5343 H   0  0  0  0  0  0
    4.7723   -7.9317   -1.4214 H   0  0  0  0  0  0
    4.0277   -6.4540   -3.2923 H   0  0  0  0  0  0
    5.6152   -5.7128   -3.3541 H   0  0  0  0  0  0
    6.6316   -7.8750   -4.0685 H   0  0  0  0  0  0
    5.0795   -8.6808   -3.9056 H   0  0  0  0  0  0
    5.4714   -8.2055   -6.2691 H   0  0  0  0  0  0
    4.1112   -7.2477   -5.7073 H   0  0  0  0  0  0
    5.6279   -5.2442   -5.4833 H   0  0  0  0  0  0
    6.9764   -6.2091   -6.0569 H   0  0  0  0  0  0
    5.7900   -6.5425   -8.2515 H   0  0  0  0  0  0
    4.4156   -5.6280   -7.6506 H   0  0  0  0  0  0
    5.8949   -3.6058   -7.3433 H   0  0  0  0  0  0
    7.2554   -4.5272   -7.9756 H   0  0  0  0  0  0
    6.0444   -4.7389  -10.2176 H   0  0  0  0  0  0
    4.8397   -2.1716   -9.0299 H   0  0  0  0  0  0
    4.8674   -2.6878  -10.8059 H   0  0  0  0  0  0
  1  2  1  0  0  0
  1 31  1  0  0  0
  1 32  1  0  0  0
  1 33  1  0  0  0
  2  3  1  0  0  0
  2 34  1  0  0  0
  2 35  1  0  0  0
  3  4  1  0  0  0
  3 36  1  0  0  0
  3 37  1  0  0  0
  4  5  1  0  0  0
  4 38  1  0  0  0
  4 39  1  0  0  0
  5  6  1  0  0  0
  5 40  1  0  0  0
  5 41  1  0  0  0
  6  7  1  0  0  0
  6 42  1  0  0  0
  6 43  1  0  0  0
  7  8  1  0  0  0
  7 44  1  0  0  0
  7 45  1  0  0  0
  8  9  1  0  0  0
  8 46  1  0  0  0
  8 47  1  0  0  0
  9 10  1  0  0  0
  9 48  1  0  0  0
  9 49  1  0  0  0
 10 11  1  0  0  0
 10 50  1  0  0  0
 10 51  1  0  0  0
 11 12  1  0  0  0
 11 52  1  0  0  0
 11 53  1  0  0  0
 12 13  1  0  0  0
 12 54  1  0  0  0
 12 55  1  0  0  0
 13 14  1  0  0  0
 13 56  1  0  0  0
 13 57  1  0  0  0
 14 15  1  0  0  0
 14 58  1  0  0  0
 14 59  1  0  0  0
 15 16  1  0  0  0
 15 60  1  0  0  0
 15 61  1  0  0  0
 16 17  1  0  0  0
 16 62  1  0  0  0
 16 63  1  0  0  0
 17 18  1  0  0  0
 17 64  1  0  0  0
 17 65  1  0  0  0
 18 19  1  0  0  0
 18 66  1  0  0  0
 18 67  1  0  0  0
 19 20  1  0  0  0
 19 68  1  0  0  0
 19 69  1  0  0  0
 20 21  1  0  0  0
 20 70  1  0  0  0
 20 71  1  0  0  0
 21 22  1  0  0  0
 21 72  1  0  0  0
 21 73  1  0  0  0
 22 23  1  0  0  0
 22 74  1  0  0  0
 22 75  1  0  0  0
 23 24  1  0  0  0
 23 76  1  0  0  0
 23 77  1  0  0  0
 24 25  1  0  0  0
 24 78  1  0  0  0
 24 79  1  0  0  0
 25 26  1  0  0  0
 25 80  1  0  0  0
 25 81  1  0  0  0
 26 27  1  0  0  0
 26 82  1  0  0  0
 26 83  1  0  0  0
 27 28  1  0  0  0
 27 84  1  0  0  0
 27 85  1  0  0  0
 28 29  1  0  0  0
 28 86  1  0  0  0
 28 87  1  0  0  0
 29 30  2  0  0  0
 29 88  1  0  0  0
 30 89  1  0  0  0
 30 90  1  0  0  0
M  END
>  <i_m_Spin_multiplicity> (1)
1

>  <s_j_Task> (1)
Single Point

>  <s_j_QM_Method> (1)
DFT(b3lyp-d3)

>  <s_j_QM_Basis> (1)
cc-pvtz(-f)

>  <i_j_Number_of_canonical_orbitals> (1)
1221

>  <i_j_Geometry_convergence_category> (1)
4

>  <r_j_Gas_Phase_Energy> (1)
-1179.84218425141

>  <r_j_Final_Energy> (1)
-1179.84218425141

>  <r_j_HOMO> (1)
-0.231697350470093

>  <r_j_LUMO> (1)
0.00447032674838609

>  <r_j_Polarizability> (1)
371.162408073223

>  <r_j_QM_Dipole_(debye)> (1)
0.488148969809993

>  <r_j_QM_Dipole_X_(debye)> (1)
0.0880952645992193

>  <r_j_QM_Dipole_Y_(debye)> (1)
-0.356919455725264

>  <r_j_QM_Dipole_Z_(debye)> (1)
0.321149720857005

>  <r_j_Lowest_Frequency_(cm-1)> (1)
14.0531610244502

>  <r_j_Highest_Frequency_(cm-1)> (1)
3166.5268020306

>  <r_j_2nd_Lowest_Frequency_(cm-1)> (1)
20.4839661613438

>  <i_j_Num_Negative_Frequencies> (1)
0

>  <r_j_Zero_Point_Energy_(kcal/mol)> (1)
532.777664072231

>  <r_j_Entropy_(cal/mol/K)_298.15K_1.00E+00atm> (1)
215.526433739734

>  <r_j_Enthalpy_(kcal/mol)_298.15K_1.00E+00atm> (1)
23.4175849584821

>  <r_j_Free_Energy_(kcal/mol)_298.15K_1.00E+00atm> (1)
-40.8416212610195

>  <r_j_Internal_Energy_(kcal/mol)_298.15K_1.00E+00atm> (1)
22.8250993696548

>  <r_j_Heat_Capacity_(cal/mol/K)_298.15K_1.00E+00atm> (1)
140.556896763845

>  <r_j_ln(Q)_298.15K_1.00E+00atm> (1)
68.9326829735364

>  <r_j_Total_Internal_Energy_(au)_298.15K_1.00E+00atm> (1)
-1178.9567748831

>  <r_j_Total_Enthalpy_(au)_298.15K_1.00E+00atm> (1)
-1178.95583069721

>  <r_j_Total_Free_Energy_(au)_298.15K_1.00E+00atm> (1)
-1179.05823426128

>  <r_lp_tautomer_probability> (1)
1

>  <r_epik_Ionization_Penalty> (1)
  0.0000

>  <r_epik_Ionization_Penalty_Charging> (1)
  0.0000

>  <r_epik_Ionization_Penalty_Neutral> (1)
  0.0000

>  <r_epik_State_Penalty> (1)
  0.0000

>  <r_epik_Charging_Adjusted_Penalty> (1)
0

>  <i_epik_Tot_Q> (1)
0

>  <i_epik_Tot_abs_Q> (1)
0

>  <s_lp_Force_Field> (1)
S-OPLS

>  <r_lp_Energy> (1)
14.1753

>  <b_lp_Chiralities_Consistent> (1)
1

$$$$
