8785_Benzyl acetate
                    3D
 Schrodinger Suite 2021-3.
 21 21  0  0  1  0            999 V2000
   -1.9895    1.2481   -0.0013 C   0  0  0  0  0  0
   -0.4798    1.3289   -0.0002 C   0  0  0  0  0  0
    0.1585    2.3597    0.0004 O   0  0  0  0  0  0
    0.0814    0.0994    0.0001 O   0  0  0  0  0  0
    1.5358    0.0813    0.0007 C   0  0  0  0  0  0
    1.9694   -1.3571    0.0005 C   0  0  0  0  0  0
    2.1586   -2.0413    1.2061 C   0  0  0  0  0  0
    2.5289   -3.3855    1.2077 C   0  0  0  0  0  0
    2.7134   -4.0597   -0.0004 C   0  0  0  0  0  0
    2.5267   -3.3853   -1.2080 C   0  0  0  0  0  0
    2.1565   -2.0411   -1.2055 C   0  0  0  0  0  0
   -2.3432    0.2170   -0.0020 H   0  0  0  0  0  0
   -2.3682    1.7733   -0.8824 H   0  0  0  0  0  0
   -2.3694    1.7724    0.8797 H   0  0  0  0  0  0
    1.8925    0.6205   -0.8820 H   0  0  0  0  0  0
    1.8921    0.6203    0.8837 H   0  0  0  0  0  0
    2.0128   -1.5162    2.1467 H   0  0  0  0  0  0
    2.6752   -3.9061    2.1496 H   0  0  0  0  0  0
    3.0042   -5.1063   -0.0007 H   0  0  0  0  0  0
    2.6713   -3.9058   -2.1503 H   0  0  0  0  0  0
    2.0091   -1.5159   -2.1457 H   0  0  0  0  0  0
  1  2  1  0  0  0
  1 12  1  0  0  0
  1 13  1  0  0  0
  1 14  1  0  0  0
  2  3  2  0  0  0
  2  4  1  0  0  0
  4  5  1  0  0  0
  5  6  1  0  0  0
  5 15  1  0  0  0
  5 16  1  0  0  0
  6 11  1  0  0  0
  6  7  2  0  0  0
  7  8  1  0  0  0
  7 17  1  0  0  0
  8  9  2  0  0  0
  8 18  1  0  0  0
  9 10  1  0  0  0
  9 19  1  0  0  0
 10 11  2  0  0  0
 10 20  1  0  0  0
 11 21  1  0  0  0
M  END
>  <i_m_Spin_multiplicity> (1)
1

>  <s_j_Task> (1)
Single Point

>  <s_j_QM_Method> (1)
DFT(b3lyp-d3)

>  <s_j_QM_Basis> (1)
cc-pvtz(-f)

>  <i_j_Number_of_canonical_orbitals> (1)
336

>  <i_j_Geometry_convergence_category> (1)
3

>  <r_j_Gas_Phase_Energy> (1)
-499.622628534113

>  <r_j_Final_Energy> (1)
-499.622628534113

>  <r_j_HOMO> (1)
-0.266594837482092

>  <r_j_LUMO> (1)
-0.0390441795083551

>  <r_j_Polarizability> (1)
107.522155282018

>  <r_j_QM_Dipole_(debye)> (1)
2.15910053508432

>  <r_j_QM_Dipole_X_(debye)> (1)
-0.372352787548445

>  <r_j_QM_Dipole_Y_(debye)> (1)
-2.12675033618201

>  <r_j_QM_Dipole_Z_(debye)> (1)
-0.00123683305045359

>  <r_j_Lowest_Frequency_(cm-1)> (1)
62.4319513912558

>  <r_j_Highest_Frequency_(cm-1)> (1)
3148.53343318446

>  <r_j_2nd_Lowest_Frequency_(cm-1)> (1)
77.7604863527678

>  <i_j_Num_Negative_Frequencies> (1)
0

>  <r_j_Zero_Point_Energy_(kcal/mol)> (1)
107.090764990718

>  <r_j_Entropy_(cal/mol/K)_298.15K_1.00E+00atm> (1)
97.1814041074483

>  <r_j_Enthalpy_(kcal/mol)_298.15K_1.00E+00atm> (1)
6.71613128069604

>  <r_j_Free_Energy_(kcal/mol)_298.15K_1.00E+00atm> (1)
-22.2585043539397

>  <r_j_Internal_Energy_(kcal/mol)_298.15K_1.00E+00atm> (1)
6.12364569186876

>  <r_j_Heat_Capacity_(cal/mol/K)_298.15K_1.00E+00atm> (1)
37.0298087217947

>  <r_j_ln(Q)_298.15K_1.00E+00atm> (1)
37.5680097097326

>  <r_j_Total_Internal_Energy_(au)_298.15K_1.00E+00atm> (1)
-499.442209885319

>  <r_j_Total_Enthalpy_(au)_298.15K_1.00E+00atm> (1)
-499.441265699427

>  <r_j_Total_Free_Energy_(au)_298.15K_1.00E+00atm> (1)
-499.487439720728

>  <r_lp_tautomer_probability> (1)
1

>  <r_epik_Ionization_Penalty> (1)
  0.0000

>  <r_epik_Ionization_Penalty_Charging> (1)
  0.0000

>  <r_epik_Ionization_Penalty_Neutral> (1)
  0.0000

>  <r_epik_State_Penalty> (1)
  0.0000

>  <r_epik_Charging_Adjusted_Penalty> (1)
0

>  <i_epik_Tot_Q> (1)
0

>  <i_epik_Tot_abs_Q> (1)
0

>  <s_lp_Force_Field> (1)
S-OPLS

>  <r_lp_Energy> (1)
9.52621

>  <b_lp_Chiralities_Consistent> (1)
1

>  <s_epik_Chemistry_Notes> (1)
This compound has an ester and may undergo hydrolysis at high or low pH.

$$$$
