880_Methylglyoxal
                    3D
 Schrodinger Suite 2021-3.
  9  8  0  0  1  0            999 V2000
   -0.0259   -0.0073   -0.0349 C   0  0  0  0  0  0
    1.4421    0.0527    0.2924 C   0  0  0  0  0  0
    2.0665   -0.8066    0.8837 O   0  0  0  0  0  0
    2.2027    1.3072   -0.1627 C   0  0  0  0  0  0
    1.6751    2.2188   -0.7582 O   0  0  0  0  0  0
   -0.5402    0.8506    0.4113 H   0  0  0  0  0  0
   -0.4517   -0.9408    0.3330 H   0  0  0  0  0  0
   -0.1685    0.0793   -1.1173 H   0  0  0  0  0  0
    3.2792    1.2907    0.1093 H   0  0  0  0  0  0
  1  2  1  0  0  0
  1  6  1  0  0  0
  1  7  1  0  0  0
  1  8  1  0  0  0
  2  3  2  0  0  0
  2  4  1  0  0  0
  4  5  2  0  0  0
  4  9  1  0  0  0
M  END
>  <i_m_Spin_multiplicity> (1)
1

>  <s_j_Task> (1)
Single Point

>  <s_j_QM_Method> (1)
DFT(b3lyp-d3)

>  <s_j_QM_Basis> (1)
cc-pvtz(-f)

>  <i_j_Number_of_canonical_orbitals> (1)
151

>  <i_j_Geometry_convergence_category> (1)
0

>  <r_j_Gas_Phase_Energy> (1)
-267.250086986421

>  <r_j_Final_Energy> (1)
-267.250086986421

>  <r_j_HOMO> (1)
-0.263895770459164

>  <r_j_LUMO> (1)
-0.10717419614124

>  <r_j_Polarizability> (1)
39.8406521679894

>  <r_j_QM_Dipole_(debye)> (1)
0.972103185375006

>  <r_j_QM_Dipole_X_(debye)> (1)
-0.950462458788755

>  <r_j_QM_Dipole_Y_(debye)> (1)
-0.0830418518822494

>  <r_j_QM_Dipole_Z_(debye)> (1)
-0.186305577708864

>  <r_j_Lowest_Frequency_(cm-1)> (1)
173.677876731738

>  <r_j_Highest_Frequency_(cm-1)> (1)
3114.03031712682

>  <r_j_2nd_Lowest_Frequency_(cm-1)> (1)
209.540441703802

>  <i_j_Num_Negative_Frequencies> (1)
0

>  <r_j_Zero_Point_Energy_(kcal/mol)> (1)
40.7642136740507

>  <r_j_Entropy_(cal/mol/K)_298.15K_1.00E+00atm> (1)
72.6755041907675

>  <r_j_Enthalpy_(kcal/mol)_298.15K_1.00E+00atm> (1)
3.93481175815816

>  <r_j_Free_Energy_(kcal/mol)_298.15K_1.00E+00atm> (1)
-17.7333898163192

>  <r_j_Internal_Energy_(kcal/mol)_298.15K_1.00E+00atm> (1)
3.34232616933088

>  <r_j_Heat_Capacity_(cal/mol/K)_298.15K_1.00E+00atm> (1)
17.4834194486772

>  <r_j_ln(Q)_298.15K_1.00E+00atm> (1)
29.930499831092

>  <r_j_Total_Internal_Energy_(au)_298.15K_1.00E+00atm> (1)
-267.179798740662

>  <r_j_Total_Enthalpy_(au)_298.15K_1.00E+00atm> (1)
-267.17885455477

>  <r_j_Total_Free_Energy_(au)_298.15K_1.00E+00atm> (1)
-267.213385032174

>  <r_lp_tautomer_probability> (1)
1

>  <r_epik_Ionization_Penalty> (1)
  0.0000

>  <r_epik_Ionization_Penalty_Charging> (1)
  0.0000

>  <r_epik_Ionization_Penalty_Neutral> (1)
  0.0000

>  <r_epik_State_Penalty> (1)
  0.0000

>  <r_epik_Charging_Adjusted_Penalty> (1)
0

>  <i_epik_Tot_Q> (1)
0

>  <i_epik_Tot_abs_Q> (1)
0

>  <s_lp_Force_Field> (1)
S-OPLS

>  <r_lp_Energy> (1)
1.16165

>  <b_lp_Chiralities_Consistent> (1)
1

$$$$
