8815_Estragole
                    3D
 Schrodinger Suite 2021-3.
 23 23  0  0  1  0            999 V2000
   -0.8068    1.1897   -0.3686 C   0  0  0  0  0  0
   -0.0555    0.0423   -0.0072 O   0  0  0  0  0  0
    1.3069    0.1491    0.0308 C   0  0  0  0  0  0
    2.0266    1.3147   -0.2467 C   0  0  0  0  0  0
    3.4235    1.2941   -0.1744 C   0  0  0  0  0  0
    4.1246    0.1376    0.1652 C   0  0  0  0  0  0
    3.3814   -1.0198    0.4480 C   0  0  0  0  0  0
    1.9958   -1.0210    0.3816 C   0  0  0  0  0  0
    5.6445    0.1104    0.2161 C   0  0  0  0  0  0
    6.1775   -0.4444    1.5123 C   0  0  0  0  0  0
    6.9383   -1.5337    1.6232 C   0  0  0  0  0  0
   -1.8546    0.8851   -0.3451 H   0  0  0  0  0  0
   -0.5559    1.5384   -1.3795 H   0  0  0  0  0  0
   -0.6562    2.0152    0.3401 H   0  0  0  0  0  0
    1.5212    2.2347   -0.5149 H   0  0  0  0  0  0
    3.9718    2.2072   -0.3941 H   0  0  0  0  0  0
    3.9049   -1.9290    0.7310 H   0  0  0  0  0  0
    1.4192   -1.9143    0.5989 H   0  0  0  0  0  0
    6.0361   -0.4854   -0.6193 H   0  0  0  0  0  0
    6.0217    1.1317    0.0725 H   0  0  0  0  0  0
    5.8801    0.0962    2.4110 H   0  0  0  0  0  0
    7.2456   -2.1043    0.7497 H   0  0  0  0  0  0
    7.2861   -1.8927    2.5873 H   0  0  0  0  0  0
  1  2  1  0  0  0
  1 12  1  0  0  0
  1 13  1  0  0  0
  1 14  1  0  0  0
  2  3  1  0  0  0
  3  8  1  0  0  0
  3  4  2  0  0  0
  4  5  1  0  0  0
  4 15  1  0  0  0
  5  6  2  0  0  0
  5 16  1  0  0  0
  6  7  1  0  0  0
  6  9  1  0  0  0
  7  8  2  0  0  0
  7 17  1  0  0  0
  8 18  1  0  0  0
  9 10  1  0  0  0
  9 19  1  0  0  0
  9 20  1  0  0  0
 10 11  2  0  0  0
 10 21  1  0  0  0
 11 22  1  0  0  0
 11 23  1  0  0  0
M  END
>  <i_m_Spin_multiplicity> (1)
1

>  <s_j_Task> (1)
Single Point

>  <s_j_QM_Method> (1)
DFT(b3lyp-d3)

>  <s_j_QM_Basis> (1)
cc-pvtz(-f)

>  <i_j_Number_of_canonical_orbitals> (1)
355

>  <i_j_Geometry_convergence_category> (1)
3

>  <r_j_Gas_Phase_Energy> (1)
-463.649138175756

>  <r_j_Final_Energy> (1)
-463.649138175756

>  <r_j_HOMO> (1)
-0.219764098673338

>  <r_j_LUMO> (1)
-0.0180971252088119

>  <r_j_Polarizability> (1)
121.751839748025

>  <r_j_QM_Dipole_(debye)> (1)
1.43259785629477

>  <r_j_QM_Dipole_X_(debye)> (1)
-0.569505152455597

>  <r_j_QM_Dipole_Y_(debye)> (1)
1.24009751078038

>  <r_j_QM_Dipole_Z_(debye)> (1)
-0.43607185525234

>  <r_j_Lowest_Frequency_(cm-1)> (1)
65.9997451546331

>  <r_j_Highest_Frequency_(cm-1)> (1)
3169.42604211977

>  <r_j_2nd_Lowest_Frequency_(cm-1)> (1)
98.2319916836323

>  <i_j_Num_Negative_Frequencies> (1)
0

>  <r_j_Zero_Point_Energy_(kcal/mol)> (1)
121.419581477178

>  <r_j_Entropy_(cal/mol/K)_298.15K_1.00E+00atm> (1)
97.8357988952735

>  <r_j_Enthalpy_(kcal/mol)_298.15K_1.00E+00atm> (1)
6.95294571635648

>  <r_j_Free_Energy_(kcal/mol)_298.15K_1.00E+00atm> (1)
-22.2167977242693

>  <r_j_Internal_Energy_(kcal/mol)_298.15K_1.00E+00atm> (1)
6.3604601275292

>  <r_j_Heat_Capacity_(cal/mol/K)_298.15K_1.00E+00atm> (1)
39.445418154436

>  <r_j_ln(Q)_298.15K_1.00E+00atm> (1)
37.497617061444

>  <r_j_Total_Internal_Energy_(au)_298.15K_1.00E+00atm> (1)
-463.445507716435

>  <r_j_Total_Enthalpy_(au)_298.15K_1.00E+00atm> (1)
-463.444563530542

>  <r_j_Total_Free_Energy_(au)_298.15K_1.00E+00atm> (1)
-463.491048475926

>  <r_lp_tautomer_probability> (1)
1

>  <r_epik_Ionization_Penalty> (1)
  0.0000

>  <r_epik_Ionization_Penalty_Charging> (1)
  0.0000

>  <r_epik_Ionization_Penalty_Neutral> (1)
  0.0000

>  <r_epik_State_Penalty> (1)
  0.0000

>  <r_epik_Charging_Adjusted_Penalty> (1)
0

>  <i_epik_Tot_Q> (1)
0

>  <i_epik_Tot_abs_Q> (1)
0

>  <s_lp_Force_Field> (1)
S-OPLS

>  <r_lp_Energy> (1)
14.4811

>  <b_lp_Chiralities_Consistent> (1)
1

$$$$
