8821_Ethyl acrylate
                    3D
 Schrodinger Suite 2021-3.
 15 14  0  0  1  0            999 V2000
   -0.4806    1.4243   -0.0001 C   0  0  0  0  0  0
   -0.1178   -0.0479    0.0002 C   0  0  0  0  0  0
    1.3255   -0.1346    0.0004 O   0  0  0  0  0  0
    1.8359   -1.3878    0.0000 C   0  0  0  0  0  0
    1.1535   -2.3937   -0.0004 O   0  0  0  0  0  0
    3.3212   -1.3486    0.0001 C   0  0  0  0  0  0
    4.0293   -2.4794   -0.0002 C   0  0  0  0  0  0
   -1.5687    1.5408   -0.0003 H   0  0  0  0  0  0
   -0.0788    1.9226   -0.8870 H   0  0  0  0  0  0
   -0.0790    1.9230    0.8866 H   0  0  0  0  0  0
   -0.5038   -0.5698    0.8822 H   0  0  0  0  0  0
   -0.5037   -0.5703   -0.8815 H   0  0  0  0  0  0
    3.7866   -0.3678    0.0004 H   0  0  0  0  0  0
    3.5216   -3.4394   -0.0005 H   0  0  0  0  0  0
    5.1144   -2.4745   -0.0001 H   0  0  0  0  0  0
  1  2  1  0  0  0
  1  8  1  0  0  0
  1  9  1  0  0  0
  1 10  1  0  0  0
  2  3  1  0  0  0
  2 11  1  0  0  0
  2 12  1  0  0  0
  3  4  1  0  0  0
  4  5  2  0  0  0
  4  6  1  0  0  0
  6  7  2  0  0  0
  6 13  1  0  0  0
  7 14  1  0  0  0
  7 15  1  0  0  0
M  END
>  <i_m_Spin_multiplicity> (1)
1

>  <s_j_Task> (1)
Single Point

>  <s_j_QM_Method> (1)
DFT(b3lyp-d3)

>  <s_j_QM_Basis> (1)
cc-pvtz(-f)

>  <i_j_Number_of_canonical_orbitals> (1)
231

>  <i_j_Geometry_convergence_category> (1)
3

>  <r_j_Gas_Phase_Energy> (1)
-345.919962539957

>  <r_j_Final_Energy> (1)
-345.919962539957

>  <r_j_HOMO> (1)
-0.289970095322578

>  <r_j_LUMO> (1)
-0.0655456270277963

>  <r_j_Polarizability> (1)
67.5889098482833

>  <r_j_QM_Dipole_(debye)> (1)
1.70842503957656

>  <r_j_QM_Dipole_X_(debye)> (1)
0.59106530848419

>  <r_j_QM_Dipole_Y_(debye)> (1)
1.60292165124551

>  <r_j_QM_Dipole_Z_(debye)> (1)
0.000311331052180938

>  <r_j_Lowest_Frequency_(cm-1)> (1)
103.217880018806

>  <r_j_Highest_Frequency_(cm-1)> (1)
3198.47005288273

>  <r_j_2nd_Lowest_Frequency_(cm-1)> (1)
138.551288870366

>  <i_j_Num_Negative_Frequencies> (1)
0

>  <r_j_Zero_Point_Energy_(kcal/mol)> (1)
77.3732630768707

>  <r_j_Entropy_(cal/mol/K)_298.15K_1.00E+00atm> (1)
84.3511440379251

>  <r_j_Enthalpy_(kcal/mol)_298.15K_1.00E+00atm> (1)
5.30149996397639

>  <r_j_Free_Energy_(kcal/mol)_298.15K_1.00E+00atm> (1)
-19.847793630931

>  <r_j_Internal_Energy_(kcal/mol)_298.15K_1.00E+00atm> (1)
4.70901437514911

>  <r_j_Heat_Capacity_(cal/mol/K)_298.15K_1.00E+00atm> (1)
26.5603931861359

>  <r_j_ln(Q)_298.15K_1.00E+00atm> (1)
33.4992006644691

>  <r_j_Total_Internal_Energy_(au)_298.15K_1.00E+00atm> (1)
-345.789156103758

>  <r_j_Total_Enthalpy_(au)_298.15K_1.00E+00atm> (1)
-345.788211917866

>  <r_j_Total_Free_Energy_(au)_298.15K_1.00E+00atm> (1)
-345.828289868553

>  <r_lp_tautomer_probability> (1)
1

>  <r_epik_Ionization_Penalty> (1)
  0.0000

>  <r_epik_Ionization_Penalty_Charging> (1)
  0.0000

>  <r_epik_Ionization_Penalty_Neutral> (1)
  0.0000

>  <r_epik_State_Penalty> (1)
  0.0000

>  <r_epik_Charging_Adjusted_Penalty> (1)
0

>  <i_epik_Tot_Q> (1)
0

>  <i_epik_Tot_abs_Q> (1)
0

>  <s_lp_Force_Field> (1)
S-OPLS

>  <r_lp_Energy> (1)
2.5998

>  <b_lp_Chiralities_Consistent> (1)
1

>  <s_epik_Chemistry_Notes> (1)
This compound has an ester and may undergo hydrolysis at high or low pH.

$$$$
