88350_Cis-3-nonene
                    3D
 Schrodinger Suite 2021-3.
 27 26  0  0  1  0            999 V2000
   -2.5981    3.0471   -0.0972 C   0  0  0  0  0  0
   -2.0582    1.6480    0.2132 C   0  0  0  0  0  0
   -0.5574    1.5075   -0.0665 C   0  0  0  0  0  0
   -0.0137    0.1096    0.2469 C   0  0  0  0  0  0
    1.4849   -0.0287   -0.0350 C   0  0  0  0  0  0
    2.0918   -1.3791    0.2485 C   0  0  0  0  0  0
    1.4670   -2.4570    0.7286 C   0  0  0  0  0  0
    2.1159   -3.7919    0.9785 C   0  0  0  0  0  0
    1.4918   -4.9141    0.1316 C   0  0  0  0  0  0
   -3.6706    3.1204    0.1104 H   0  0  0  0  0  0
   -2.4439    3.3040   -1.1516 H   0  0  0  0  0  0
   -2.0888    3.8084    0.5049 H   0  0  0  0  0  0
   -2.2533    1.4031    1.2662 H   0  0  0  0  0  0
   -2.6066    0.9018   -0.3779 H   0  0  0  0  0  0
   -0.3607    1.7494   -1.1210 H   0  0  0  0  0  0
   -0.0070    2.2552    0.5227 H   0  0  0  0  0  0
   -0.2099   -0.1277    1.3010 H   0  0  0  0  0  0
   -0.5651   -0.6353   -0.3421 H   0  0  0  0  0  0
    1.6793    0.2280   -1.0881 H   0  0  0  0  0  0
    2.0334    0.7311    0.5434 H   0  0  0  0  0  0
    3.1585   -1.4583    0.0293 H   0  0  0  0  0  0
    0.4013   -2.4082    0.9525 H   0  0  0  0  0  0
    3.1919   -3.7278    0.7751 H   0  0  0  0  0  0
    2.0154   -4.0547    2.0416 H   0  0  0  0  0  0
    1.9527   -5.8824    0.3527 H   0  0  0  0  0  0
    1.6181   -4.7105   -0.9367 H   0  0  0  0  0  0
    0.4170   -5.0027    0.3269 H   0  0  0  0  0  0
  1  2  1  0  0  0
  1 10  1  0  0  0
  1 11  1  0  0  0
  1 12  1  0  0  0
  2  3  1  0  0  0
  2 13  1  0  0  0
  2 14  1  0  0  0
  3  4  1  0  0  0
  3 15  1  0  0  0
  3 16  1  0  0  0
  4  5  1  0  0  0
  4 17  1  0  0  0
  4 18  1  0  0  0
  5  6  1  0  0  0
  5 19  1  0  0  0
  5 20  1  0  0  0
  6  7  2  0  0  0
  6 21  1  0  0  0
  7  8  1  0  0  0
  7 22  1  0  0  0
  8  9  1  0  0  0
  8 23  1  0  0  0
  8 24  1  0  0  0
  9 25  1  0  0  0
  9 26  1  0  0  0
  9 27  1  0  0  0
M  END
>  <i_m_Spin_multiplicity> (1)
1

>  <s_j_Task> (1)
Single Point

>  <s_j_QM_Method> (1)
DFT(b3lyp-d3)

>  <s_j_QM_Basis> (1)
cc-pvtz(-f)

>  <i_j_Number_of_canonical_orbitals> (1)
365

>  <i_j_Geometry_convergence_category> (1)
0

>  <r_j_Gas_Phase_Energy> (1)
-353.935654392404

>  <r_j_Final_Energy> (1)
-353.935654392404

>  <r_j_HOMO> (1)
-0.256421321774893

>  <r_j_LUMO> (1)
0.00205606695225298

>  <r_j_Polarizability> (1)
112.252114491089

>  <r_j_QM_Dipole_(debye)> (1)
0.0874232683566429

>  <r_j_QM_Dipole_X_(debye)> (1)
-0.0328656226475843

>  <r_j_QM_Dipole_Y_(debye)> (1)
0.0808372542235562

>  <r_j_QM_Dipole_Z_(debye)> (1)
0.00529311134781143

>  <r_j_Lowest_Frequency_(cm-1)> (1)
75.8564368649237

>  <r_j_Highest_Frequency_(cm-1)> (1)
3090.24067431927

>  <r_j_2nd_Lowest_Frequency_(cm-1)> (1)
104.903311293709

>  <i_j_Num_Negative_Frequencies> (1)
0

>  <r_j_Zero_Point_Energy_(kcal/mol)> (1)
157.119686381499

>  <r_j_Entropy_(cal/mol/K)_298.15K_1.00E+00atm> (1)
101.807431214704

>  <r_j_Enthalpy_(kcal/mol)_298.15K_1.00E+00atm> (1)
7.57326289557244

>  <r_j_Free_Energy_(kcal/mol)_298.15K_1.00E+00atm> (1)
-22.7806227210916

>  <r_j_Internal_Energy_(kcal/mol)_298.15K_1.00E+00atm> (1)
6.98077730674516

>  <r_j_Heat_Capacity_(cal/mol/K)_298.15K_1.00E+00atm> (1)
41.4123244106726

>  <r_j_ln(Q)_298.15K_1.00E+00atm> (1)
38.4492435776911

>  <r_j_Total_Internal_Energy_(au)_298.15K_1.00E+00atm> (1)
-353.67414365586

>  <r_j_Total_Enthalpy_(au)_298.15K_1.00E+00atm> (1)
-353.673199469968

>  <r_j_Total_Free_Energy_(au)_298.15K_1.00E+00atm> (1)
-353.721571466038

>  <r_lp_tautomer_probability> (1)
1

>  <r_epik_Ionization_Penalty> (1)
  0.0000

>  <r_epik_Ionization_Penalty_Charging> (1)
  0.0000

>  <r_epik_Ionization_Penalty_Neutral> (1)
  0.0000

>  <r_epik_State_Penalty> (1)
  0.0000

>  <r_epik_Charging_Adjusted_Penalty> (1)
0

>  <i_epik_Tot_Q> (1)
0

>  <i_epik_Tot_abs_Q> (1)
0

>  <s_lp_Force_Field> (1)
S-OPLS

>  <r_lp_Energy> (1)
-2.041358

>  <b_lp_Chiralities_Consistent> (1)
1

$$$$
