8871_Hydroxypyridine
                    3D
 Schrodinger Suite 2021-3.
 12 12  0  0  1  0            999 V2000
   -1.2657    2.0539    0.0186 C   0  0  0  0  0  0
   -2.4349    1.3491    0.0212 C   0  0  0  0  0  0
   -2.4522   -0.1038    0.0134 C   0  0  0  0  0  0
   -3.4392   -0.8323    0.0150 O   0  0  0  0  0  0
   -1.1562   -0.6688    0.0031 N   0  0  0  0  0  0
    0.0141    0.0323    0.0004 C   0  0  0  0  0  0
    0.0011    1.3955    0.0080 C   0  0  0  0  0  0
   -1.2946    3.1405    0.0247 H   0  0  0  0  0  0
   -3.4032    1.8354    0.0293 H   0  0  0  0  0  0
   -1.1489   -1.6811   -0.0025 H   0  0  0  0  0  0
    0.9257   -0.5553   -0.0079 H   0  0  0  0  0  0
    0.9294    1.9523    0.0059 H   0  0  0  0  0  0
  1  7  1  0  0  0
  1  2  2  0  0  0
  1  8  1  0  0  0
  2  3  1  0  0  0
  2  9  1  0  0  0
  3  4  2  0  0  0
  3  5  1  0  0  0
  5  6  1  0  0  0
  5 10  1  0  0  0
  6  7  2  0  0  0
  6 11  1  0  0  0
  7 12  1  0  0  0
M  END
>  <i_m_Spin_multiplicity> (1)
1

>  <s_j_Task> (1)
Single Point

>  <s_j_QM_Method> (1)
DFT(b3lyp-d3)

>  <s_j_QM_Basis> (1)
cc-pvtz(-f)

>  <i_j_Number_of_canonical_orbitals> (1)
204

>  <i_j_Geometry_convergence_category> (1)
0

>  <r_j_Gas_Phase_Energy> (1)
-323.635457306941

>  <r_j_Final_Energy> (1)
-323.635457306941

>  <r_j_HOMO> (1)
-0.225560325634956

>  <r_j_LUMO> (1)
-0.0492647174627182

>  <r_j_Polarizability> (1)
64.5848788844263

>  <r_j_QM_Dipole_(debye)> (1)
4.23596383362259

>  <r_j_QM_Dipole_X_(debye)> (1)
4.11297849827924

>  <r_j_QM_Dipole_Y_(debye)> (1)
1.01315832996552

>  <r_j_QM_Dipole_Z_(debye)> (1)
-0.0175405493862036

>  <r_j_Lowest_Frequency_(cm-1)> (1)
188.804080441578

>  <r_j_Highest_Frequency_(cm-1)> (1)
3554.2913610805

>  <r_j_2nd_Lowest_Frequency_(cm-1)> (1)
402.02262160767

>  <i_j_Num_Negative_Frequencies> (1)
0

>  <r_j_Zero_Point_Energy_(kcal/mol)> (1)
58.4312914220666

>  <r_j_Entropy_(cal/mol/K)_298.15K_1.00E+00atm> (1)
73.6483610295656

>  <r_j_Enthalpy_(kcal/mol)_298.15K_1.00E+00atm> (1)
3.85116861588668

>  <r_j_Free_Energy_(kcal/mol)_298.15K_1.00E+00atm> (1)
-18.1070902250783

>  <r_j_Internal_Energy_(kcal/mol)_298.15K_1.00E+00atm> (1)
3.2586830270594

>  <r_j_Heat_Capacity_(cal/mol/K)_298.15K_1.00E+00atm> (1)
20.1421584198517

>  <r_j_ln(Q)_298.15K_1.00E+00atm> (1)
30.5612331616677

>  <r_j_Total_Internal_Energy_(au)_298.15K_1.00E+00atm> (1)
-323.537148074334

>  <r_j_Total_Enthalpy_(au)_298.15K_1.00E+00atm> (1)
-323.536203888442

>  <r_j_Total_Free_Energy_(au)_298.15K_1.00E+00atm> (1)
-323.571196601526

>  <r_lp_tautomer_probability> (1)
1

>  <r_epik_Ionization_Penalty> (1)
  0.0000

>  <r_epik_Ionization_Penalty_Charging> (1)
  0.0000

>  <r_epik_Ionization_Penalty_Neutral> (1)
  0.0000

>  <r_epik_State_Penalty> (1)
  0.0000

>  <r_epik_Charging_Adjusted_Penalty> (1)
2.70996e-05

>  <i_epik_Tot_Q> (1)
0

>  <i_epik_Tot_abs_Q> (1)
0

>  <s_lp_Force_Field> (1)
S-OPLS

>  <r_lp_Energy> (1)
11.5837

>  <b_lp_Chiralities_Consistent> (1)
1

$$$$
