888_Magnesium ion
                    3D
 Schrodinger Suite 2021-3.
  1  0  0  0  1  0            999 V2000
    0.0000    0.0000    0.0000 Mg  0  2  0  0  0  0
M  END
>  <i_m_Spin_multiplicity> (1)
1

>  <s_j_Task> (1)
Single Point

>  <s_j_QM_Method> (1)
DFT(b3lyp-d3)

>  <s_j_QM_Basis> (1)
cc-pvtz(-f)

>  <i_j_Number_of_canonical_orbitals> (1)
27

>  <r_j_Gas_Phase_Energy> (1)
-199.244686730042

>  <r_j_Final_Energy> (1)
-199.244686730042

>  <r_j_Polarizability> (1)
0.277678604056768

>  <r_j_QM_Dipole_(debye)> (1)
2.66880991095962e-09

>  <r_j_QM_Dipole_X_(debye)> (1)
-2.17315831746789e-09

>  <r_j_QM_Dipole_Y_(debye)> (1)
-1.3468743768165e-09

>  <r_j_QM_Dipole_Z_(debye)> (1)
7.65414058618995e-10

>  <r_j_Zero_Point_Energy_(kcal/mol)> (1)
0

>  <r_j_Entropy_(cal/mol/K)_298.15K_1.00E+00atm> (1)
35.4622336659957

>  <r_j_Enthalpy_(kcal/mol)_298.15K_1.00E+00atm> (1)
1.48121397206819

>  <r_j_Free_Energy_(kcal/mol)_298.15K_1.00E+00atm> (1)
-9.09185099544842

>  <r_j_Internal_Energy_(kcal/mol)_298.15K_1.00E+00atm> (1)
0.888728383240912

>  <r_j_Heat_Capacity_(cal/mol/K)_298.15K_1.00E+00atm> (1)
2.98080960335707

>  <r_j_ln(Q)_298.15K_1.00E+00atm> (1)
15.3452694325346

>  <r_j_Total_Internal_Energy_(au)_298.15K_1.00E+00atm> (1)
-199.243270451204

>  <r_j_Total_Enthalpy_(au)_298.15K_1.00E+00atm> (1)
-199.242326265312

>  <r_j_Total_Free_Energy_(au)_298.15K_1.00E+00atm> (1)
-199.259175516953

>  <r_j_HOMO> (1)
-2.59035248326024

>  <r_j_LUMO> (1)
-0.669782669076003

$$$$
