8900_N-heptane
                    3D
 Schrodinger Suite 2021-3.
 23 22  0  0  1  0            999 V2000
   -2.1312    1.5163    0.0000 C   0  0  0  0  0  0
   -0.6003    1.4696    0.0000 C   0  0  0  0  0  0
   -0.0419    0.0411    0.0000 C   0  0  0  0  0  0
    1.4902   -0.0138    0.0000 C   0  0  0  0  0  0
    2.0527   -1.4400    0.0000 C   0  0  0  0  0  0
    3.5856   -1.4903    0.0000 C   0  0  0  0  0  0
    4.1400   -2.9180    0.0000 C   0  0  0  0  0  0
   -2.5032    2.5463   -0.0001 H   0  0  0  0  0  0
   -2.5402    1.0134    0.8840 H   0  0  0  0  0  0
   -2.5401    1.0133   -0.8840 H   0  0  0  0  0  0
   -0.2162    2.0075   -0.8777 H   0  0  0  0  0  0
   -0.2162    2.0075    0.8777 H   0  0  0  0  0  0
   -0.4255   -0.4985    0.8781 H   0  0  0  0  0  0
   -0.4255   -0.4985   -0.8781 H   0  0  0  0  0  0
    1.8723    0.5266   -0.8780 H   0  0  0  0  0  0
    1.8723    0.5265    0.8781 H   0  0  0  0  0  0
    1.6718   -1.9816    0.8781 H   0  0  0  0  0  0
    1.6718   -1.9815   -0.8780 H   0  0  0  0  0  0
    3.9647   -0.9488   -0.8777 H   0  0  0  0  0  0
    3.9647   -0.9488    0.8777 H   0  0  0  0  0  0
    5.2351   -2.9255   -0.0001 H   0  0  0  0  0  0
    3.8020   -3.4713   -0.8840 H   0  0  0  0  0  0
    3.8021   -3.4713    0.8840 H   0  0  0  0  0  0
  1  2  1  0  0  0
  1  8  1  0  0  0
  1  9  1  0  0  0
  1 10  1  0  0  0
  2  3  1  0  0  0
  2 11  1  0  0  0
  2 12  1  0  0  0
  3  4  1  0  0  0
  3 13  1  0  0  0
  3 14  1  0  0  0
  4  5  1  0  0  0
  4 15  1  0  0  0
  4 16  1  0  0  0
  5  6  1  0  0  0
  5 17  1  0  0  0
  5 18  1  0  0  0
  6  7  1  0  0  0
  6 19  1  0  0  0
  6 20  1  0  0  0
  7 21  1  0  0  0
  7 22  1  0  0  0
  7 23  1  0  0  0
M  END
>  <i_m_Spin_multiplicity> (1)
1

>  <s_j_Task> (1)
Single Point

>  <s_j_QM_Method> (1)
DFT(b3lyp-d3)

>  <s_j_QM_Basis> (1)
cc-pvtz(-f)

>  <i_j_Number_of_canonical_orbitals> (1)
304

>  <i_j_Geometry_convergence_category> (1)
0

>  <r_j_Gas_Phase_Energy> (1)
-276.511726332861

>  <r_j_Final_Energy> (1)
-276.511726332861

>  <r_j_HOMO> (1)
-0.308837157927477

>  <r_j_LUMO> (1)
0.0260720695013311

>  <r_j_Polarizability> (1)
88.4763365066872

>  <r_j_QM_Dipole_(debye)> (1)
0.0836682314175215

>  <r_j_QM_Dipole_X_(debye)> (1)
0.0482315136939931

>  <r_j_QM_Dipole_Y_(debye)> (1)
0.0683672607383809

>  <r_j_QM_Dipole_Z_(debye)> (1)
-0.000108140891115336

>  <r_j_Lowest_Frequency_(cm-1)> (1)
91.5801074656308

>  <r_j_Highest_Frequency_(cm-1)> (1)
3045.1069582601

>  <r_j_2nd_Lowest_Frequency_(cm-1)> (1)
117.083747524449

>  <i_j_Num_Negative_Frequencies> (1)
0

>  <r_j_Zero_Point_Energy_(kcal/mol)> (1)
136.155683582014

>  <r_j_Entropy_(cal/mol/K)_298.15K_1.00E+00atm> (1)
90.1175739425521

>  <r_j_Enthalpy_(kcal/mol)_298.15K_1.00E+00atm> (1)
6.33239659078591

>  <r_j_Free_Energy_(kcal/mol)_298.15K_1.00E+00atm> (1)
-20.536158080186

>  <r_j_Internal_Energy_(kcal/mol)_298.15K_1.00E+00atm> (1)
5.73991100195864

>  <r_j_Heat_Capacity_(cal/mol/K)_298.15K_1.00E+00atm> (1)
33.4192471596273

>  <r_j_ln(Q)_298.15K_1.00E+00atm> (1)
34.6610254619591

>  <r_j_Total_Internal_Energy_(au)_298.15K_1.00E+00atm> (1)
-276.285601307873

>  <r_j_Total_Enthalpy_(au)_298.15K_1.00E+00atm> (1)
-276.284657121981

>  <r_j_Total_Free_Energy_(au)_298.15K_1.00E+00atm> (1)
-276.327474889609

>  <r_lp_tautomer_probability> (1)
1

>  <r_epik_Ionization_Penalty> (1)
  0.0000

>  <r_epik_Ionization_Penalty_Charging> (1)
  0.0000

>  <r_epik_Ionization_Penalty_Neutral> (1)
  0.0000

>  <r_epik_State_Penalty> (1)
  0.0000

>  <r_epik_Charging_Adjusted_Penalty> (1)
0

>  <i_epik_Tot_Q> (1)
0

>  <i_epik_Tot_abs_Q> (1)
0

>  <s_lp_Force_Field> (1)
S-OPLS

>  <r_lp_Energy> (1)
2.446972

>  <b_lp_Chiralities_Consistent> (1)
1

$$$$
