8909_Butoxybutane
                    3D
 Schrodinger Suite 2021-3.
 27 26  0  0  1  0            999 V2000
   -2.5945    2.9344   -0.0003 C   0  0  0  0  0  0
   -2.0804    1.4917   -0.0001 C   0  0  0  0  0  0
   -0.5498    1.4076    0.0002 C   0  0  0  0  0  0
   -0.0398   -0.0269    0.0001 C   0  0  0  0  0  0
    1.3767   -0.0051    0.0002 O   0  0  0  0  0  0
    1.9558   -1.2979    0.0001 C   0  0  0  0  0  0
    3.4715   -1.1539    0.0000 C   0  0  0  0  0  0
    4.1944   -2.5056   -0.0001 C   0  0  0  0  0  0
    5.7192   -2.3621   -0.0003 C   0  0  0  0  0  0
   -3.6888    2.9705   -0.0004 H   0  0  0  0  0  0
   -2.2414    3.4776   -0.8841 H   0  0  0  0  0  0
   -2.2417    3.4777    0.8837 H   0  0  0  0  0  0
   -2.4753    0.9621    0.8776 H   0  0  0  0  0  0
   -2.4750    0.9621   -0.8781 H   0  0  0  0  0  0
   -0.1432    1.9229   -0.8790 H   0  0  0  0  0  0
   -0.1436    1.9227    0.8797 H   0  0  0  0  0  0
   -0.4176   -0.5672    0.8869 H   0  0  0  0  0  0
   -0.4175   -0.5671   -0.8868 H   0  0  0  0  0  0
    1.6259   -1.8688    0.8870 H   0  0  0  0  0  0
    1.6258   -1.8687   -0.8867 H   0  0  0  0  0  0
    3.7666   -0.5678   -0.8793 H   0  0  0  0  0  0
    3.7667   -0.5679    0.8794 H   0  0  0  0  0  0
    3.8813   -3.0872    0.8778 H   0  0  0  0  0  0
    3.8810   -3.0872   -0.8779 H   0  0  0  0  0  0
    6.2142   -3.3387   -0.0003 H   0  0  0  0  0  0
    6.0626   -1.8127    0.8836 H   0  0  0  0  0  0
    6.0624   -1.8127   -0.8842 H   0  0  0  0  0  0
  1  2  1  0  0  0
  1 10  1  0  0  0
  1 11  1  0  0  0
  1 12  1  0  0  0
  2  3  1  0  0  0
  2 13  1  0  0  0
  2 14  1  0  0  0
  3  4  1  0  0  0
  3 15  1  0  0  0
  3 16  1  0  0  0
  4  5  1  0  0  0
  4 17  1  0  0  0
  4 18  1  0  0  0
  5  6  1  0  0  0
  6  7  1  0  0  0
  6 19  1  0  0  0
  6 20  1  0  0  0
  7  8  1  0  0  0
  7 21  1  0  0  0
  7 22  1  0  0  0
  8  9  1  0  0  0
  8 23  1  0  0  0
  8 24  1  0  0  0
  9 25  1  0  0  0
  9 26  1  0  0  0
  9 27  1  0  0  0
M  END
>  <i_m_Spin_multiplicity> (1)
1

>  <s_j_Task> (1)
Single Point

>  <s_j_QM_Method> (1)
DFT(b3lyp-d3)

>  <s_j_QM_Basis> (1)
cc-pvtz(-f)

>  <i_j_Number_of_canonical_orbitals> (1)
367

>  <i_j_Geometry_convergence_category> (1)
0

>  <r_j_Gas_Phase_Energy> (1)
-391.075259081074

>  <r_j_Final_Energy> (1)
-391.075259081074

>  <r_j_HOMO> (1)
-0.259515449487053

>  <r_j_LUMO> (1)
0.0231497002025223

>  <r_j_Polarizability> (1)
106.005044500632

>  <r_j_QM_Dipole_(debye)> (1)
1.01181591495364

>  <r_j_QM_Dipole_X_(debye)> (1)
-0.543827140277931

>  <r_j_QM_Dipole_Y_(debye)> (1)
-0.853242908320583

>  <r_j_QM_Dipole_Z_(debye)> (1)
-0.000163252037452019

>  <r_j_Lowest_Frequency_(cm-1)> (1)
71.2058410089077

>  <r_j_Highest_Frequency_(cm-1)> (1)
3048.34178549579

>  <r_j_2nd_Lowest_Frequency_(cm-1)> (1)
79.5918759333911

>  <i_j_Num_Negative_Frequencies> (1)
0

>  <r_j_Zero_Point_Energy_(kcal/mol)> (1)
156.8458766011

>  <r_j_Entropy_(cal/mol/K)_298.15K_1.00E+00atm> (1)
103.195784606552

>  <r_j_Enthalpy_(kcal/mol)_298.15K_1.00E+00atm> (1)
7.76149543494968

>  <r_j_Free_Energy_(kcal/mol)_298.15K_1.00E+00atm> (1)
-23.0063277454939

>  <r_j_Internal_Energy_(kcal/mol)_298.15K_1.00E+00atm> (1)
7.1690098461224

>  <r_j_Heat_Capacity_(cal/mol/K)_298.15K_1.00E+00atm> (1)
41.424722548371

>  <r_j_ln(Q)_298.15K_1.00E+00atm> (1)
38.8301895933554

>  <r_j_Total_Internal_Energy_(au)_298.15K_1.00E+00atm> (1)
-390.813884720545

>  <r_j_Total_Enthalpy_(au)_298.15K_1.00E+00atm> (1)
-390.812940534653

>  <r_j_Total_Free_Energy_(au)_298.15K_1.00E+00atm> (1)
-390.861972182223

>  <r_lp_tautomer_probability> (1)
1

>  <r_epik_Ionization_Penalty> (1)
  0.0000

>  <r_epik_Ionization_Penalty_Charging> (1)
  0.0000

>  <r_epik_Ionization_Penalty_Neutral> (1)
  0.0000

>  <r_epik_State_Penalty> (1)
  0.0000

>  <r_epik_Charging_Adjusted_Penalty> (1)
0

>  <i_epik_Tot_Q> (1)
0

>  <i_epik_Tot_abs_Q> (1)
0

>  <s_lp_Force_Field> (1)
S-OPLS

>  <r_lp_Energy> (1)
3.073755

>  <b_lp_Chiralities_Consistent> (1)
1

$$$$
