8923_Triethylene glycol monobutyl ether
                    3D
 Schrodinger Suite 2021-3.
 36 35  0  0  1  0            999 V2000
   -0.9100    3.5251   -5.2574 C   0  0  0  0  0  0
   -1.1890    3.0868   -3.8176 C   0  0  0  0  0  0
   -0.3142    3.8183   -2.7926 C   0  0  0  0  0  0
   -0.5628    3.3595   -1.3616 C   0  0  0  0  0  0
   -0.2233    1.9858   -1.2696 O   0  0  0  0  0  0
   -0.4820    1.4241   -0.0005 C   0  0  0  0  0  0
    0.0003   -0.0122    0.0075 C   0  0  0  0  0  0
    1.4129   -0.0214    0.0451 O   0  0  0  0  0  0
    1.9630   -1.3211   -0.0229 C   0  0  0  0  0  0
    3.4741   -1.2174    0.0043 C   0  0  0  0  0  0
    3.9219   -0.6949   -1.2298 O   0  0  0  0  0  0
    5.3181   -0.4783   -1.2702 C   0  0  0  0  0  0
    5.6494    0.1081   -2.6328 C   0  0  0  0  0  0
    7.0571    0.3121   -2.6613 O   0  0  0  0  0  0
   -1.5456    2.9899   -5.9705 H   0  0  0  0  0  0
    0.1335    3.3322   -5.5318 H   0  0  0  0  0  0
   -1.0920    4.5983   -5.3889 H   0  0  0  0  0  0
   -2.2469    3.2611   -3.5758 H   0  0  0  0  0  0
   -1.0219    2.0096   -3.7115 H   0  0  0  0  0  0
    0.7456    3.6579   -3.0278 H   0  0  0  0  0  0
   -0.4925    4.9006   -2.8479 H   0  0  0  0  0  0
    0.0408    3.9509   -0.6523 H   0  0  0  0  0  0
   -1.6240    3.5116   -1.0913 H   0  0  0  0  0  0
    0.0376    1.9823    0.7958 H   0  0  0  0  0  0
   -1.5628    1.4463    0.2259 H   0  0  0  0  0  0
   -0.4193   -0.5329    0.8870 H   0  0  0  0  0  0
   -0.3765   -0.5218   -0.8943 H   0  0  0  0  0  0
    1.6289   -1.9358    0.8322 H   0  0  0  0  0  0
    1.6515   -1.8354   -0.9467 H   0  0  0  0  0  0
    3.7747   -0.5667    0.8416 H   0  0  0  0  0  0
    3.9039   -2.2181    0.1857 H   0  0  0  0  0  0
    5.6402    0.2213   -0.4820 H   0  0  0  0  0  0
    5.8781   -1.4177   -1.1277 H   0  0  0  0  0  0
    5.3136   -0.5915   -3.4135 H   0  0  0  0  0  0
    5.0880    1.0458   -2.7612 H   0  0  0  0  0  0
    7.2853    0.6999   -3.5145 H   0  0  0  0  0  0
  1  2  1  0  0  0
  1 15  1  0  0  0
  1 16  1  0  0  0
  1 17  1  0  0  0
  2  3  1  0  0  0
  2 18  1  0  0  0
  2 19  1  0  0  0
  3  4  1  0  0  0
  3 20  1  0  0  0
  3 21  1  0  0  0
  4  5  1  0  0  0
  4 22  1  0  0  0
  4 23  1  0  0  0
  5  6  1  0  0  0
  6  7  1  0  0  0
  6 24  1  0  0  0
  6 25  1  0  0  0
  7  8  1  0  0  0
  7 26  1  0  0  0
  7 27  1  0  0  0
  8  9  1  0  0  0
  9 10  1  0  0  0
  9 28  1  0  0  0
  9 29  1  0  0  0
 10 11  1  0  0  0
 10 30  1  0  0  0
 10 31  1  0  0  0
 11 12  1  0  0  0
 12 13  1  0  0  0
 12 32  1  0  0  0
 12 33  1  0  0  0
 13 14  1  0  0  0
 13 34  1  0  0  0
 13 35  1  0  0  0
 14 36  1  0  0  0
M  END
>  <i_m_Spin_multiplicity> (1)
1

>  <s_j_Task> (1)
Single Point

>  <s_j_QM_Method> (1)
DFT(b3lyp-d3)

>  <s_j_QM_Basis> (1)
cc-pvtz(-f)

>  <i_j_Number_of_canonical_orbitals> (1)
519

>  <i_j_Geometry_convergence_category> (1)
0

>  <r_j_Gas_Phase_Energy> (1)
-695.438112549061

>  <r_j_Final_Energy> (1)
-695.438112549061

>  <r_j_HOMO> (1)
-0.237544408713797

>  <r_j_LUMO> (1)
0.0325060087845258

>  <r_j_Polarizability> (1)
142.916221821446

>  <r_j_QM_Dipole_(debye)> (1)
1.21142358692262

>  <r_j_QM_Dipole_X_(debye)> (1)
-1.15663694714681

>  <r_j_QM_Dipole_Y_(debye)> (1)
-0.153975663945179

>  <r_j_QM_Dipole_Z_(debye)> (1)
0.32562182721681

>  <r_j_Lowest_Frequency_(cm-1)> (1)
22.8164602600398

>  <r_j_Highest_Frequency_(cm-1)> (1)
3785.5642797244

>  <r_j_2nd_Lowest_Frequency_(cm-1)> (1)
45.1424993089456

>  <i_j_Num_Negative_Frequencies> (1)
0

>  <r_j_Zero_Point_Energy_(kcal/mol)> (1)
201.394412209537

>  <r_j_Entropy_(cal/mol/K)_298.15K_1.00E+00atm> (1)
129.311821869891

>  <r_j_Enthalpy_(kcal/mol)_298.15K_1.00E+00atm> (1)
11.0291410442546

>  <r_j_Free_Energy_(kcal/mol)_298.15K_1.00E+00atm> (1)
-27.5251786462534

>  <r_j_Internal_Energy_(kcal/mol)_298.15K_1.00E+00atm> (1)
10.4366554554273

>  <r_j_Heat_Capacity_(cal/mol/K)_298.15K_1.00E+00atm> (1)
60.6721370174319

>  <r_j_ln(Q)_298.15K_1.00E+00atm> (1)
46.457127675856

>  <r_j_Total_Internal_Energy_(au)_298.15K_1.00E+00atm> (1)
-695.100538252908

>  <r_j_Total_Enthalpy_(au)_298.15K_1.00E+00atm> (1)
-695.099594067015

>  <r_j_Total_Free_Energy_(au)_298.15K_1.00E+00atm> (1)
-695.161034286699

>  <r_lp_tautomer_probability> (1)
1

>  <r_epik_Ionization_Penalty> (1)
  0.0000

>  <r_epik_Ionization_Penalty_Charging> (1)
  0.0000

>  <r_epik_Ionization_Penalty_Neutral> (1)
  0.0000

>  <r_epik_State_Penalty> (1)
  0.0000

>  <r_epik_Charging_Adjusted_Penalty> (1)
0

>  <i_epik_Tot_Q> (1)
0

>  <i_epik_Tot_abs_Q> (1)
0

>  <s_lp_Force_Field> (1)
S-OPLS

>  <r_lp_Energy> (1)
8.780676

>  <b_lp_Chiralities_Consistent> (1)
1

$$$$
