8927_Oleyl Alcohol
                    3D
 Schrodinger Suite 2021-3.
 55 54  0  0  1  0            999 V2000
   -9.0195    4.5385   -1.9787 C   0  0  0  0  0  0
   -8.4378    3.2439   -1.4031 C   0  0  0  0  0  0
   -6.9072    3.1868   -1.4767 C   0  0  0  0  0  0
   -6.3192    1.8949   -0.8985 C   0  0  0  0  0  0
   -4.7886    1.8331   -0.9651 C   0  0  0  0  0  0
   -4.2165    0.5427   -0.3631 C   0  0  0  0  0  0
   -2.6914    0.3962   -0.4776 C   0  0  0  0  0  0
   -1.9053    1.4559    0.3030 C   0  0  0  0  0  0
   -0.4083    1.2812    0.3330 C   0  0  0  0  0  0
    0.3088    0.3370   -0.2820 C   0  0  0  0  0  0
    1.8029    0.1815   -0.1789 C   0  0  0  0  0  0
    2.2157   -1.1240    0.5354 C   0  0  0  0  0  0
    1.7911   -1.1691    2.0072 C   0  0  0  0  0  0
    2.1405   -2.4863    2.7080 C   0  0  0  0  0  0
    1.6829   -2.5289    4.1707 C   0  0  0  0  0  0
    2.0022   -3.8526    4.8730 C   0  0  0  0  0  0
    1.5268   -3.8889    6.3298 C   0  0  0  0  0  0
    1.8022   -5.2182    7.0210 C   0  0  0  0  0  0
    1.0635   -6.2310    6.3404 O   0  0  0  0  0  0
  -10.1124    4.5533   -1.9138 H   0  0  0  0  0  0
   -8.7462    4.6586   -3.0334 H   0  0  0  0  0  0
   -8.6413    5.4144   -1.4391 H   0  0  0  0  0  0
   -8.7529    3.1323   -0.3566 H   0  0  0  0  0  0
   -8.8574    2.3815   -1.9390 H   0  0  0  0  0  0
   -6.5895    3.2962   -2.5237 H   0  0  0  0  0  0
   -6.4860    4.0503   -0.9419 H   0  0  0  0  0  0
   -6.6399    1.7878    0.1478 H   0  0  0  0  0  0
   -6.7418    1.0320   -1.4329 H   0  0  0  0  0  0
   -4.4637    1.9208   -2.0121 H   0  0  0  0  0  0
   -4.3747    2.7066   -0.4447 H   0  0  0  0  0  0
   -4.5071    0.4796    0.6956 H   0  0  0  0  0  0
   -4.6905   -0.3162   -0.8571 H   0  0  0  0  0  0
   -2.4045   -0.5975   -0.1110 H   0  0  0  0  0  0
   -2.3985    0.4297   -1.5358 H   0  0  0  0  0  0
   -2.1288    2.4559   -0.0960 H   0  0  0  0  0  0
   -2.2717    1.4799    1.3414 H   0  0  0  0  0  0
    0.1265    2.0204    0.9329 H   0  0  0  0  0  0
   -0.1973   -0.4190   -0.8826 H   0  0  0  0  0  0
    2.2433    0.1852   -1.1857 H   0  0  0  0  0  0
    2.2326    1.0397    0.3545 H   0  0  0  0  0  0
    1.7761   -1.9795    0.0031 H   0  0  0  0  0  0
    3.3046   -1.2456    0.4625 H   0  0  0  0  0  0
    2.2620   -0.3324    2.5438 H   0  0  0  0  0  0
    0.7095   -0.9965    2.0741 H   0  0  0  0  0  0
    1.6800   -3.3219    2.1616 H   0  0  0  0  0  0
    3.2260   -2.6549    2.6590 H   0  0  0  0  0  0
    2.1485   -1.6985    4.7215 H   0  0  0  0  0  0
    0.5992   -2.3488    4.2140 H   0  0  0  0  0  0
    1.5377   -4.6842    4.3307 H   0  0  0  0  0  0
    3.0870   -4.0316    4.8416 H   0  0  0  0  0  0
    2.0133   -3.0900    6.9056 H   0  0  0  0  0  0
    0.4468   -3.6967    6.3720 H   0  0  0  0  0  0
    2.8848   -5.4303    6.9953 H   0  0  0  0  0  0
    1.5058   -5.1557    8.0810 H   0  0  0  0  0  0
    1.2888   -7.0833    6.7329 H   0  0  0  0  0  0
  1  2  1  0  0  0
  1 20  1  0  0  0
  1 21  1  0  0  0
  1 22  1  0  0  0
  2  3  1  0  0  0
  2 23  1  0  0  0
  2 24  1  0  0  0
  3  4  1  0  0  0
  3 25  1  0  0  0
  3 26  1  0  0  0
  4  5  1  0  0  0
  4 27  1  0  0  0
  4 28  1  0  0  0
  5  6  1  0  0  0
  5 29  1  0  0  0
  5 30  1  0  0  0
  6  7  1  0  0  0
  6 31  1  0  0  0
  6 32  1  0  0  0
  7  8  1  0  0  0
  7 33  1  0  0  0
  7 34  1  0  0  0
  8  9  1  0  0  0
  8 35  1  0  0  0
  8 36  1  0  0  0
  9 10  2  0  0  0
  9 37  1  0  0  0
 10 11  1  0  0  0
 10 38  1  0  0  0
 11 12  1  0  0  0
 11 39  1  0  0  0
 11 40  1  0  0  0
 12 13  1  0  0  0
 12 41  1  0  0  0
 12 42  1  0  0  0
 13 14  1  0  0  0
 13 43  1  0  0  0
 13 44  1  0  0  0
 14 15  1  0  0  0
 14 45  1  0  0  0
 14 46  1  0  0  0
 15 16  1  0  0  0
 15 47  1  0  0  0
 15 48  1  0  0  0
 16 17  1  0  0  0
 16 49  1  0  0  0
 16 50  1  0  0  0
 17 18  1  0  0  0
 17 51  1  0  0  0
 17 52  1  0  0  0
 18 19  1  0  0  0
 18 53  1  0  0  0
 18 54  1  0  0  0
 19 55  1  0  0  0
M  END
>  <i_m_Spin_multiplicity> (1)
1

>  <s_j_Task> (1)
Single Point

>  <s_j_QM_Method> (1)
DFT(b3lyp-d3)

>  <s_j_QM_Basis> (1)
cc-pvtz(-f)

>  <i_j_Number_of_canonical_orbitals> (1)
755

>  <i_j_Geometry_convergence_category> (1)
3

>  <r_j_Gas_Phase_Energy> (1)
-783.141383288415

>  <r_j_Final_Energy> (1)
-783.141383288415

>  <r_j_HOMO> (1)
-0.240453632821366

>  <r_j_LUMO> (1)
-0.0402819161717738

>  <r_j_Polarizability> (1)
227.543572161688

>  <r_j_QM_Dipole_(debye)> (1)
1.36473586950673

>  <r_j_QM_Dipole_X_(debye)> (1)
0.686870031049177

>  <r_j_QM_Dipole_Y_(debye)> (1)
-0.412851268087888

>  <r_j_QM_Dipole_Z_(debye)> (1)
1.10465713431952

>  <r_j_Lowest_Frequency_(cm-1)> (1)
22.1186187359488

>  <r_j_Highest_Frequency_(cm-1)> (1)
3777.78803261752

>  <r_j_2nd_Lowest_Frequency_(cm-1)> (1)
41.391278645983

>  <i_j_Num_Negative_Frequencies> (1)
0

>  <r_j_Zero_Point_Energy_(kcal/mol)> (1)
321.399298153189

>  <r_j_Entropy_(cal/mol/K)_298.15K_1.00E+00atm> (1)
156.726198319663

>  <r_j_Enthalpy_(kcal/mol)_298.15K_1.00E+00atm> (1)
14.9479344664967

>  <r_j_Free_Energy_(kcal/mol)_298.15K_1.00E+00atm> (1)
-31.7799815625108

>  <r_j_Internal_Energy_(kcal/mol)_298.15K_1.00E+00atm> (1)
14.3554488776694

>  <r_j_Heat_Capacity_(cal/mol/K)_298.15K_1.00E+00atm> (1)
87.4244627198167

>  <r_j_ln(Q)_298.15K_1.00E+00atm> (1)
53.6384043119326

>  <r_j_Total_Internal_Energy_(au)_298.15K_1.00E+00atm> (1)
-782.606324037387

>  <r_j_Total_Enthalpy_(au)_298.15K_1.00E+00atm> (1)
-782.605379851495

>  <r_j_Total_Free_Energy_(au)_298.15K_1.00E+00atm> (1)
-782.679845526139

>  <r_lp_tautomer_probability> (1)
1

>  <r_epik_Ionization_Penalty> (1)
  0.0000

>  <r_epik_Ionization_Penalty_Charging> (1)
  0.0000

>  <r_epik_Ionization_Penalty_Neutral> (1)
  0.0000

>  <r_epik_State_Penalty> (1)
  0.0000

>  <r_epik_Charging_Adjusted_Penalty> (1)
0

>  <i_epik_Tot_Q> (1)
0

>  <i_epik_Tot_abs_Q> (1)
0

>  <s_lp_Force_Field> (1)
S-OPLS

>  <r_lp_Energy> (1)
2.895897

>  <b_lp_Chiralities_Consistent> (1)
1

$$$$
