89671_Nonadecylcyclohexane
                    3D
 Schrodinger Suite 2021-3.
 75 75  0  0  1  0            999 V2000
   -0.4394   10.5934   -2.8792 C   0  0  0  0  0  0
   -0.0756    9.1097   -2.7662 C   0  0  0  0  0  0
   -0.7667    8.2453   -3.8300 C   0  0  0  0  0  0
   -0.3577    6.7644   -3.8085 C   0  0  0  0  0  0
   -0.7911    6.0001   -2.5504 C   0  0  0  0  0  0
   -0.3633    4.5283   -2.5672 C   0  0  0  0  0  0
   -0.7915    3.7481   -1.3187 C   0  0  0  0  0  0
   -0.2790    2.3034   -1.3089 C   0  0  0  0  0  0
   -0.7002    1.5122   -0.0635 C   0  0  0  0  0  0
   -0.1808    0.0654   -0.0308 C   0  0  0  0  0  0
    1.3437   -0.0488    0.0989 C   0  0  0  0  0  0
    1.8523   -1.4940    0.1512 C   0  0  0  0  0  0
    3.3782   -1.5825    0.2699 C   0  0  0  0  0  0
    3.9219   -3.0154    0.2616 C   0  0  0  0  0  0
    5.4497   -3.0760    0.3729 C   0  0  0  0  0  0
    6.0193   -4.4972    0.3054 C   0  0  0  0  0  0
    7.5479   -4.5389    0.4137 C   0  0  0  0  0  0
    8.1344   -5.9499    0.2888 C   0  0  0  0  0  0
    9.6635   -5.9724    0.4111 C   0  0  0  0  0  0
   10.3228   -7.3332    0.1320 C   0  0  0  0  0  0
   11.8585   -7.2054    0.1112 C   0  0  0  0  0  0
   12.5526   -8.5451   -0.1739 C   0  0  0  0  0  0
   12.1179   -9.6210    0.8318 C   0  0  0  0  0  0
   10.5896   -9.7674    0.8550 C   0  0  0  0  0  0
    9.8985   -8.4235    1.1352 C   0  0  0  0  0  0
    0.0634   11.1912   -2.1117 H   0  0  0  0  0  0
   -1.5191   10.7440   -2.7647 H   0  0  0  0  0  0
   -0.1531   10.9966   -3.8575 H   0  0  0  0  0  0
    1.0128    8.9889   -2.8584 H   0  0  0  0  0  0
   -0.3377    8.7490   -1.7640 H   0  0  0  0  0  0
   -1.8569    8.3254   -3.7094 H   0  0  0  0  0  0
   -0.5411    8.6623   -4.8211 H   0  0  0  0  0  0
   -0.7821    6.2627   -4.6887 H   0  0  0  0  0  0
    0.7343    6.6913   -3.9165 H   0  0  0  0  0  0
   -0.3714    6.4797   -1.6566 H   0  0  0  0  0  0
   -1.8839    6.0651   -2.4453 H   0  0  0  0  0  0
   -0.7730    4.0371   -3.4615 H   0  0  0  0  0  0
    0.7303    4.4744   -2.6688 H   0  0  0  0  0  0
   -0.4233    4.2672   -0.4220 H   0  0  0  0  0  0
   -1.8881    3.7525   -1.2417 H   0  0  0  0  0  0
   -0.6387    1.7805   -2.2070 H   0  0  0  0  0  0
    0.8156    2.3210   -1.3877 H   0  0  0  0  0  0
   -0.3528    2.0407    0.8361 H   0  0  0  0  0  0
   -1.7969    1.5027   -0.0045 H   0  0  0  0  0  0
   -0.6485   -0.4653    0.8095 H   0  0  0  0  0  0
   -0.5083   -0.4585   -0.9405 H   0  0  0  0  0  0
    1.8288    0.4620   -0.7429 H   0  0  0  0  0  0
    1.6686    0.4850    1.0040 H   0  0  0  0  0  0
    1.3865   -2.0198    0.9968 H   0  0  0  0  0  0
    1.5259   -2.0265   -0.7537 H   0  0  0  0  0  0
    3.8363   -1.0210   -0.5572 H   0  0  0  0  0  0
    3.7003   -1.0760    1.1912 H   0  0  0  0  0  0
    3.4712   -3.5853    1.0866 H   0  0  0  0  0  0
    3.6041   -3.5185   -0.6630 H   0  0  0  0  0  0
    5.8938   -2.4725   -0.4318 H   0  0  0  0  0  0
    5.7645   -2.6013    1.3134 H   0  0  0  0  0  0
    5.5790   -5.1081    1.1064 H   0  0  0  0  0  0
    5.7090   -4.9674   -0.6389 H   0  0  0  0  0  0
    7.9833   -3.8966   -0.3653 H   0  0  0  0  0  0
    7.8565   -4.0994    1.3731 H   0  0  0  0  0  0
    7.6841   -6.5937    1.0552 H   0  0  0  0  0  0
    7.8411   -6.3793   -0.6802 H   0  0  0  0  0  0
   10.0818   -5.2338   -0.2876 H   0  0  0  0  0  0
    9.9534   -5.6325    1.4166 H   0  0  0  0  0  0
   10.0040   -7.6626   -0.8708 H   0  0  0  0  0  0
   12.1588   -6.4562   -0.6322 H   0  0  0  0  0  0
   12.1936   -6.8256    1.0882 H   0  0  0  0  0  0
   12.2939   -8.8762   -1.1900 H   0  0  0  0  0  0
   13.6419   -8.4198   -0.1544 H   0  0  0  0  0  0
   12.5913  -10.5814    0.5949 H   0  0  0  0  0  0
   12.4675   -9.3378    1.8352 H   0  0  0  0  0  0
   10.2504  -10.1488   -0.1189 H   0  0  0  0  0  0
   10.2877  -10.5105    1.6028 H   0  0  0  0  0  0
   10.1567   -8.0861    2.1506 H   0  0  0  0  0  0
    8.8111   -8.5566    1.1181 H   0  0  0  0  0  0
  1  2  1  0  0  0
  1 26  1  0  0  0
  1 27  1  0  0  0
  1 28  1  0  0  0
  2  3  1  0  0  0
  2 29  1  0  0  0
  2 30  1  0  0  0
  3  4  1  0  0  0
  3 31  1  0  0  0
  3 32  1  0  0  0
  4  5  1  0  0  0
  4 33  1  0  0  0
  4 34  1  0  0  0
  5  6  1  0  0  0
  5 35  1  0  0  0
  5 36  1  0  0  0
  6  7  1  0  0  0
  6 37  1  0  0  0
  6 38  1  0  0  0
  7  8  1  0  0  0
  7 39  1  0  0  0
  7 40  1  0  0  0
  8  9  1  0  0  0
  8 41  1  0  0  0
  8 42  1  0  0  0
  9 10  1  0  0  0
  9 43  1  0  0  0
  9 44  1  0  0  0
 10 11  1  0  0  0
 10 45  1  0  0  0
 10 46  1  0  0  0
 11 12  1  0  0  0
 11 47  1  0  0  0
 11 48  1  0  0  0
 12 13  1  0  0  0
 12 49  1  0  0  0
 12 50  1  0  0  0
 13 14  1  0  0  0
 13 51  1  0  0  0
 13 52  1  0  0  0
 14 15  1  0  0  0
 14 53  1  0  0  0
 14 54  1  0  0  0
 15 16  1  0  0  0
 15 55  1  0  0  0
 15 56  1  0  0  0
 16 17  1  0  0  0
 16 57  1  0  0  0
 16 58  1  0  0  0
 17 18  1  0  0  0
 17 59  1  0  0  0
 17 60  1  0  0  0
 18 19  1  0  0  0
 18 61  1  0  0  0
 18 62  1  0  0  0
 19 20  1  0  0  0
 19 63  1  0  0  0
 19 64  1  0  0  0
 20 25  1  0  0  0
 20 21  1  0  0  0
 20 65  1  0  0  0
 21 22  1  0  0  0
 21 66  1  0  0  0
 21 67  1  0  0  0
 22 23  1  0  0  0
 22 68  1  0  0  0
 22 69  1  0  0  0
 23 24  1  0  0  0
 23 70  1  0  0  0
 23 71  1  0  0  0
 24 25  1  0  0  0
 24 72  1  0  0  0
 24 73  1  0  0  0
 25 74  1  0  0  0
 25 75  1  0  0  0
M  END
>  <i_m_Spin_multiplicity> (1)
1

>  <s_j_Task> (1)
Single Point

>  <s_j_QM_Method> (1)
DFT(b3lyp-d3)

>  <s_j_QM_Basis> (1)
cc-pvtz(-f)

>  <i_j_Number_of_canonical_orbitals> (1)
1016

>  <i_j_Geometry_convergence_category> (1)
3

>  <r_j_Gas_Phase_Energy> (1)
-983.231089011725

>  <r_j_Final_Energy> (1)
-983.231089011725

>  <r_j_HOMO> (1)
-0.251769291226152

>  <r_j_LUMO> (1)
-0.016072322968122

>  <r_j_Polarizability> (1)
306.973502910174

>  <r_j_QM_Dipole_(debye)> (1)
0.101455905608639

>  <r_j_QM_Dipole_X_(debye)> (1)
-0.00890288680262704

>  <r_j_QM_Dipole_Y_(debye)> (1)
-0.100136166089722

>  <r_j_QM_Dipole_Z_(debye)> (1)
-0.0136670271200505

>  <r_j_Lowest_Frequency_(cm-1)> (1)
21.0230532081055

>  <r_j_Highest_Frequency_(cm-1)> (1)
3045.35942004037

>  <r_j_2nd_Lowest_Frequency_(cm-1)> (1)
35.4083473726582

>  <i_j_Num_Negative_Frequencies> (1)
0

>  <r_j_Zero_Point_Energy_(kcal/mol)> (1)
445.700974745315

>  <r_j_Entropy_(cal/mol/K)_298.15K_1.00E+00atm> (1)
182.328031503053

>  <r_j_Enthalpy_(kcal/mol)_298.15K_1.00E+00atm> (1)
18.681722412329

>  <r_j_Free_Energy_(kcal/mol)_298.15K_1.00E+00atm> (1)
-35.6793801803061

>  <r_j_Internal_Energy_(kcal/mol)_298.15K_1.00E+00atm> (1)
18.0892368235017

>  <r_j_Heat_Capacity_(cal/mol/K)_298.15K_1.00E+00atm> (1)
113.353489511571

>  <r_j_ln(Q)_298.15K_1.00E+00atm> (1)
60.2198278795733

>  <r_j_Total_Internal_Energy_(au)_298.15K_1.00E+00atm> (1)
-982.49199225902

>  <r_j_Total_Enthalpy_(au)_298.15K_1.00E+00atm> (1)
-982.491048073128

>  <r_j_Total_Free_Energy_(au)_298.15K_1.00E+00atm> (1)
-982.577678004932

>  <r_lp_tautomer_probability> (1)
1

>  <r_epik_Ionization_Penalty> (1)
  0.0000

>  <r_epik_Ionization_Penalty_Charging> (1)
  0.0000

>  <r_epik_Ionization_Penalty_Neutral> (1)
  0.0000

>  <r_epik_State_Penalty> (1)
  0.0000

>  <r_epik_Charging_Adjusted_Penalty> (1)
0

>  <i_epik_Tot_Q> (1)
0

>  <i_epik_Tot_abs_Q> (1)
0

>  <s_lp_Force_Field> (1)
S-OPLS

>  <r_lp_Energy> (1)
18.111181

>  <b_lp_Chiralities_Consistent> (1)
1

$$$$
