9005_Trimethoxymethane
                    3D
 Schrodinger Suite 2021-3.
 17 16  0  0  1  0            999 V2000
   -0.6407    1.2188   -0.1145 C   0  0  0  0  0  0
   -0.0889   -0.0854   -0.2497 O   0  0  0  0  0  0
    1.3013   -0.1127   -0.2224 C   0  0  0  0  0  0
    1.7854    0.5067   -1.3695 O   0  0  0  0  0  0
    3.1987    0.6671   -1.3827 C   0  0  0  0  0  0
    1.7238   -1.4373   -0.2166 O   0  0  0  0  0  0
    1.4095   -2.1352    0.9825 C   0  0  0  0  0  0
   -1.7253    1.0981   -0.0920 H   0  0  0  0  0  0
   -0.3594    1.8606   -0.9563 H   0  0  0  0  0  0
   -0.3156    1.6978    0.8222 H   0  0  0  0  0  0
    1.6783    0.4144    0.6869 H   0  0  0  0  0  0
    3.4419    1.2219   -2.2906 H   0  0  0  0  0  0
    3.7103   -0.3014   -1.3950 H   0  0  0  0  0  0
    3.5465    1.2414   -0.5099 H   0  0  0  0  0  0
    1.8487   -3.1301    0.8892 H   0  0  0  0  0  0
    0.3266   -2.2225    1.1215 H   0  0  0  0  0  0
    1.8419   -1.6357    1.8634 H   0  0  0  0  0  0
  1  2  1  0  0  0
  1  8  1  0  0  0
  1  9  1  0  0  0
  1 10  1  0  0  0
  2  3  1  0  0  0
  3  4  1  0  0  0
  3  6  1  0  0  0
  3 11  1  0  0  0
  4  5  1  0  0  0
  5 12  1  0  0  0
  5 13  1  0  0  0
  5 14  1  0  0  0
  6  7  1  0  0  0
  7 15  1  0  0  0
  7 16  1  0  0  0
  7 17  1  0  0  0
M  END
>  <i_m_Spin_multiplicity> (1)
1

>  <s_j_Task> (1)
Single Point

>  <s_j_QM_Method> (1)
DFT(b3lyp-d3)

>  <s_j_QM_Basis> (1)
cc-pvtz(-f)

>  <i_j_Number_of_canonical_orbitals> (1)
251

>  <i_j_Geometry_convergence_category> (1)
1

>  <r_j_Gas_Phase_Energy> (1)
-384.235365995867

>  <r_j_Final_Energy> (1)
-384.235365995867

>  <r_j_HOMO> (1)
-0.274475148740081

>  <r_j_LUMO> (1)
0.0286654841354577

>  <r_j_Polarizability> (1)
63.8184606627232

>  <r_j_QM_Dipole_(debye)> (1)
2.24670413173141

>  <r_j_QM_Dipole_X_(debye)> (1)
0.757333936380562

>  <r_j_QM_Dipole_Y_(debye)> (1)
1.06196544114087

>  <r_j_QM_Dipole_Z_(debye)> (1)
1.82930428473991

>  <r_j_Lowest_Frequency_(cm-1)> (1)
129.323016775029

>  <r_j_Highest_Frequency_(cm-1)> (1)
3082.64545005772

>  <r_j_2nd_Lowest_Frequency_(cm-1)> (1)
130.033355726964

>  <i_j_Num_Negative_Frequencies> (1)
0

>  <r_j_Zero_Point_Energy_(kcal/mol)> (1)
91.2291464495888

>  <r_j_Entropy_(cal/mol/K)_298.15K_1.00E+00atm> (1)
88.0067606365533

>  <r_j_Enthalpy_(kcal/mol)_298.15K_1.00E+00atm> (1)
5.84913354272856

>  <r_j_Free_Energy_(kcal/mol)_298.15K_1.00E+00atm> (1)
-20.3900821410598

>  <r_j_Internal_Energy_(kcal/mol)_298.15K_1.00E+00atm> (1)
5.25664795390129

>  <r_j_Heat_Capacity_(cal/mol/K)_298.15K_1.00E+00atm> (1)
29.1399327584851

>  <r_j_ln(Q)_298.15K_1.00E+00atm> (1)
34.4144777958541

>  <r_j_Total_Internal_Energy_(au)_298.15K_1.00E+00atm> (1)
-384.081606094198

>  <r_j_Total_Enthalpy_(au)_298.15K_1.00E+00atm> (1)
-384.080661908306

>  <r_j_Total_Free_Energy_(au)_298.15K_1.00E+00atm> (1)
-384.122476760413

>  <r_lp_tautomer_probability> (1)
1

>  <r_epik_Ionization_Penalty> (1)
  0.0000

>  <r_epik_Ionization_Penalty_Charging> (1)
  0.0000

>  <r_epik_Ionization_Penalty_Neutral> (1)
  0.0000

>  <r_epik_State_Penalty> (1)
  0.0000

>  <r_epik_Charging_Adjusted_Penalty> (1)
0

>  <i_epik_Tot_Q> (1)
0

>  <i_epik_Tot_abs_Q> (1)
0

>  <s_lp_Force_Field> (1)
S-OPLS

>  <r_lp_Energy> (1)
-4.547561

>  <b_lp_Chiralities_Consistent> (1)
1

>  <s_epik_Chemistry_Notes> (1)
This compound contains an acetal/aminal-like group ( X-CH(R)-Y where X, Y are N, S, or O) that may be acid/base labile, releasing an aldehyde.

$$$$
