9106_Dibenzo(a,i)pyrene
                    3D
 Schrodinger Suite 2021-3.
 38 43  0  0  1  0            999 V2000
    3.7135   -2.1581   -3.8208 C   0  0  0  0  0  0
    2.4003   -2.6239   -4.0451 C   0  0  0  0  0  0
    1.3643   -2.2174   -3.2291 C   0  0  0  0  0  0
    1.5812   -1.3264   -2.1476 C   0  0  0  0  0  0
    0.5240   -0.8740   -1.2674 C   0  0  0  0  0  0
    0.8230    0.0189   -0.2071 C   0  0  0  0  0  0
    2.1796    0.4720   -0.0106 C   0  0  0  0  0  0
    3.1768    0.0335   -0.8561 C   0  0  0  0  0  0
    2.9154   -0.8582   -1.9258 C   0  0  0  0  0  0
    3.9615   -1.2927   -2.7807 C   0  0  0  0  0  0
    2.4647    1.3804    1.0737 C   0  0  0  0  0  0
    1.4906    1.8133    1.9049 C   0  0  0  0  0  0
    0.1217    1.3861    1.7445 C   0  0  0  0  0  0
   -0.8704    1.8295    2.5934 C   0  0  0  0  0  0
   -2.2195    1.4205    2.4499 C   0  0  0  0  0  0
   -3.2205    1.8928    3.3378 C   0  0  0  0  0  0
   -4.5318    1.4992    3.2022 C   0  0  0  0  0  0
   -4.8921    0.6120    2.1657 C   0  0  0  0  0  0
   -3.9385    0.1374    1.2888 C   0  0  0  0  0  0
   -2.5782    0.5204    1.3970 C   0  0  0  0  0  0
   -1.5478    0.0459    0.4982 C   0  0  0  0  0  0
   -0.2079    0.4768    0.6718 C   0  0  0  0  0  0
   -1.8174   -0.8499   -0.5737 C   0  0  0  0  0  0
   -0.8293   -1.2880   -1.4149 C   0  0  0  0  0  0
    4.5228   -2.4831   -4.4680 H   0  0  0  0  0  0
    2.2041   -3.3071   -4.8661 H   0  0  0  0  0  0
    0.3678   -2.5938   -3.4288 H   0  0  0  0  0  0
    4.1964    0.3791   -0.7024 H   0  0  0  0  0  0
    4.9679   -0.9258   -2.5960 H   0  0  0  0  0  0
    3.4914    1.7103    1.2057 H   0  0  0  0  0  0
    1.7202    2.4974    2.7175 H   0  0  0  0  0  0
   -0.6159    2.5140    3.3993 H   0  0  0  0  0  0
   -2.9288    2.5757    4.1315 H   0  0  0  0  0  0
   -5.2885    1.8680    3.8882 H   0  0  0  0  0  0
   -5.9267    0.3003    2.0572 H   0  0  0  0  0  0
   -4.2477   -0.5429    0.5035 H   0  0  0  0  0  0
   -2.8282   -1.2029   -0.7403 H   0  0  0  0  0  0
   -1.0992   -1.9699   -2.2127 H   0  0  0  0  0  0
  1 10  1  0  0  0
  1  2  2  0  0  0
  1 25  1  0  0  0
  2  3  1  0  0  0
  2 26  1  0  0  0
  3  4  2  0  0  0
  3 27  1  0  0  0
  4  9  1  0  0  0
  4  5  1  0  0  0
  5 24  1  0  0  0
  5  6  2  0  0  0
  6 22  1  0  0  0
  6  7  1  0  0  0
  7  8  2  0  0  0
  7 11  1  0  0  0
  8  9  1  0  0  0
  8 28  1  0  0  0
  9 10  2  0  0  0
 10 29  1  0  0  0
 11 12  2  0  0  0
 11 30  1  0  0  0
 12 13  1  0  0  0
 12 31  1  0  0  0
 13 22  1  0  0  0
 13 14  2  0  0  0
 14 15  1  0  0  0
 14 32  1  0  0  0
 15 20  1  0  0  0
 15 16  2  0  0  0
 16 17  1  0  0  0
 16 33  1  0  0  0
 17 18  2  0  0  0
 17 34  1  0  0  0
 18 19  1  0  0  0
 18 35  1  0  0  0
 19 20  2  0  0  0
 19 36  1  0  0  0
 20 21  1  0  0  0
 21 22  2  0  0  0
 21 23  1  0  0  0
 23 24  2  0  0  0
 23 37  1  0  0  0
 24 38  1  0  0  0
M  END
>  <i_m_Spin_multiplicity> (1)
1

>  <s_j_Task> (1)
Single Point

>  <s_j_QM_Method> (1)
DFT(b3lyp-d3)

>  <s_j_QM_Basis> (1)
cc-pvtz(-f)

>  <i_j_Number_of_canonical_orbitals> (1)
652

>  <i_j_Geometry_convergence_category> (1)
3

>  <r_j_Gas_Phase_Energy> (1)
-923.35090192016

>  <r_j_Final_Energy> (1)
-923.35090192016

>  <r_j_HOMO> (1)
-0.194711293317657

>  <r_j_LUMO> (1)
-0.0768860328957505

>  <r_j_Polarizability> (1)
326.473231303482

>  <r_j_QM_Dipole_(debye)> (1)
0.0676225608882589

>  <r_j_QM_Dipole_X_(debye)> (1)
-0.0431230732456328

>  <r_j_QM_Dipole_Y_(debye)> (1)
-0.0364729740071385

>  <r_j_QM_Dipole_Z_(debye)> (1)
-0.037187813353472

>  <r_j_Lowest_Frequency_(cm-1)> (1)
61.717193938184

>  <r_j_Highest_Frequency_(cm-1)> (1)
3170.60900463374

>  <r_j_2nd_Lowest_Frequency_(cm-1)> (1)
91.877971155206

>  <i_j_Num_Negative_Frequencies> (1)
0

>  <r_j_Zero_Point_Energy_(kcal/mol)> (1)
188.122466932962

>  <r_j_Entropy_(cal/mol/K)_298.15K_1.00E+00atm> (1)
119.83885648222

>  <r_j_Enthalpy_(kcal/mol)_298.15K_1.00E+00atm> (1)
10.0361357450668

>  <r_j_Free_Energy_(kcal/mol)_298.15K_1.00E+00atm> (1)
-25.6938193151072

>  <r_j_Internal_Energy_(kcal/mol)_298.15K_1.00E+00atm> (1)
9.44365015623956

>  <r_j_Heat_Capacity_(cal/mol/K)_298.15K_1.00E+00atm> (1)
67.1684010725142

>  <r_j_ln(Q)_298.15K_1.00E+00atm> (1)
43.3661506703711

>  <r_j_Total_Internal_Energy_(au)_298.15K_1.00E+00atm> (1)
-923.036060269899

>  <r_j_Total_Enthalpy_(au)_298.15K_1.00E+00atm> (1)
-923.035116084007

>  <r_j_Total_Free_Energy_(au)_298.15K_1.00E+00atm> (1)
-923.092055392126

>  <r_lp_tautomer_probability> (1)
1

>  <r_epik_Ionization_Penalty> (1)
  0.0000

>  <r_epik_Ionization_Penalty_Charging> (1)
  0.0000

>  <r_epik_Ionization_Penalty_Neutral> (1)
  0.0000

>  <r_epik_State_Penalty> (1)
  0.0000

>  <r_epik_Charging_Adjusted_Penalty> (1)
0

>  <i_epik_Tot_Q> (1)
0

>  <i_epik_Tot_abs_Q> (1)
0

>  <s_lp_Force_Field> (1)
S-OPLS

>  <r_lp_Energy> (1)
61.1402

>  <b_lp_Chiralities_Consistent> (1)
1

$$$$
