9115_Coronene
                    3D
 Schrodinger Suite 2021-3.
 36 42  0  0  1  0            999 V2000
    1.1218    2.1589    0.0028 C   0  0  0  0  0  0
   -0.0414    1.4317    0.0091 C   0  0  0  0  0  0
   -0.0216    0.0083    0.0001 C   0  0  0  0  0  0
    1.2324   -0.6582   -0.0155 C   0  0  0  0  0  0
    2.4423    0.0981   -0.0220 C   0  0  0  0  0  0
    2.3926    1.5175   -0.0129 C   0  0  0  0  0  0
    3.6154    2.2464   -0.0197 C   0  0  0  0  0  0
    4.8267    1.6026   -0.0348 C   0  0  0  0  0  0
    4.9066    0.1813   -0.0442 C   0  0  0  0  0  0
    3.7022   -0.5715   -0.0377 C   0  0  0  0  0  0
    3.7520   -1.9974   -0.0469 C   0  0  0  0  0  0
    5.0061   -2.6639   -0.0625 C   0  0  0  0  0  0
    6.1971   -1.8842   -0.0686 C   0  0  0  0  0  0
    6.1492   -0.5132   -0.0598 C   0  0  0  0  0  0
    5.0259   -4.0874   -0.0714 C   0  0  0  0  0  0
    3.8627   -4.8145   -0.0651 C   0  0  0  0  0  0
    2.5919   -4.1731   -0.0495 C   0  0  0  0  0  0
    2.5422   -2.7538   -0.0404 C   0  0  0  0  0  0
    1.2823   -2.0841   -0.0247 C   0  0  0  0  0  0
    0.0779   -2.8368   -0.0183 C   0  0  0  0  0  0
   -1.1647   -2.1424   -0.0027 C   0  0  0  0  0  0
   -1.2127   -0.7714    0.0062 C   0  0  0  0  0  0
    0.1578   -4.2581   -0.0277 C   0  0  0  0  0  0
    1.3691   -4.9020   -0.0427 C   0  0  0  0  0  0
    1.0878    3.2451    0.0098 H   0  0  0  0  0  0
   -1.0029    1.9382    0.0210 H   0  0  0  0  0  0
    3.5734    3.3323   -0.0128 H   0  0  0  0  0  0
    5.7503    2.1753   -0.0400 H   0  0  0  0  0  0
    7.1548   -2.3978   -0.0805 H   0  0  0  0  0  0
    7.0687    0.0660   -0.0646 H   0  0  0  0  0  0
    5.9874   -4.5938   -0.0833 H   0  0  0  0  0  0
    3.8968   -5.9007   -0.0721 H   0  0  0  0  0  0
   -2.0842   -2.7217    0.0021 H   0  0  0  0  0  0
   -2.1703   -0.2577    0.0181 H   0  0  0  0  0  0
   -0.7658   -4.8308   -0.0226 H   0  0  0  0  0  0
    1.4110   -5.9879   -0.0497 H   0  0  0  0  0  0
  1  6  1  0  0  0
  1  2  2  0  0  0
  1 25  1  0  0  0
  2  3  1  0  0  0
  2 26  1  0  0  0
  3 22  1  0  0  0
  3  4  2  0  0  0
  4 19  1  0  0  0
  4  5  1  0  0  0
  5 10  1  0  0  0
  5  6  2  0  0  0
  6  7  1  0  0  0
  7  8  2  0  0  0
  7 27  1  0  0  0
  8  9  1  0  0  0
  8 28  1  0  0  0
  9 14  1  0  0  0
  9 10  2  0  0  0
 10 11  1  0  0  0
 11 18  1  0  0  0
 11 12  2  0  0  0
 12 13  1  0  0  0
 12 15  1  0  0  0
 13 14  2  0  0  0
 13 29  1  0  0  0
 14 30  1  0  0  0
 15 16  2  0  0  0
 15 31  1  0  0  0
 16 17  1  0  0  0
 16 32  1  0  0  0
 17 24  1  0  0  0
 17 18  2  0  0  0
 18 19  1  0  0  0
 19 20  2  0  0  0
 20 21  1  0  0  0
 20 23  1  0  0  0
 21 22  2  0  0  0
 21 33  1  0  0  0
 22 34  1  0  0  0
 23 24  2  0  0  0
 23 35  1  0  0  0
 24 36  1  0  0  0
M  END
>  <i_m_Spin_multiplicity> (1)
1

>  <s_j_Task> (1)
Single Point

>  <s_j_QM_Method> (1)
DFT(b3lyp-d3)

>  <s_j_QM_Basis> (1)
cc-pvtz(-f)

>  <i_j_Number_of_canonical_orbitals> (1)
634

>  <i_j_Geometry_convergence_category> (1)
0

>  <r_j_Gas_Phase_Energy> (1)
-922.184622820502

>  <r_j_Final_Energy> (1)
-922.184622820502

>  <r_j_HOMO> (1)
-0.216692553426739

>  <r_j_LUMO> (1)
-0.0704393297707919

>  <r_j_Polarizability> (1)
290.408901679326

>  <r_j_QM_Dipole_(debye)> (1)
0.00150006088227461

>  <r_j_QM_Dipole_X_(debye)> (1)
-0.00116027365841305

>  <r_j_QM_Dipole_Y_(debye)> (1)
-0.000943041414167295

>  <r_j_QM_Dipole_Z_(debye)> (1)
-0.000120915587451046

>  <r_j_Lowest_Frequency_(cm-1)> (1)
103.519030200426

>  <r_j_Highest_Frequency_(cm-1)> (1)
3137.6000705344

>  <r_j_2nd_Lowest_Frequency_(cm-1)> (1)
103.640583364112

>  <i_j_Num_Negative_Frequencies> (1)
0

>  <r_j_Zero_Point_Energy_(kcal/mol)> (1)
175.088716461024

>  <r_j_Entropy_(cal/mol/K)_298.15K_1.00E+00atm> (1)
108.525225334129

>  <r_j_Enthalpy_(kcal/mol)_298.15K_1.00E+00atm> (1)
9.20022913091626

>  <r_j_Free_Energy_(kcal/mol)_298.15K_1.00E+00atm> (1)
-23.1565668024543

>  <r_j_Internal_Energy_(kcal/mol)_298.15K_1.00E+00atm> (1)
8.60774354208899

>  <r_j_Heat_Capacity_(cal/mol/K)_298.15K_1.00E+00atm> (1)
63.2092972626559

>  <r_j_ln(Q)_298.15K_1.00E+00atm> (1)
39.0837637895781

>  <r_j_Total_Internal_Energy_(au)_298.15K_1.00E+00atm> (1)
-921.891883875856

>  <r_j_Total_Enthalpy_(au)_298.15K_1.00E+00atm> (1)
-921.890939689964

>  <r_j_Total_Free_Energy_(au)_298.15K_1.00E+00atm> (1)
-921.942503526815

>  <r_lp_tautomer_probability> (1)
1

>  <r_epik_Ionization_Penalty> (1)
  0.0000

>  <r_epik_Ionization_Penalty_Charging> (1)
  0.0000

>  <r_epik_Ionization_Penalty_Neutral> (1)
  0.0000

>  <r_epik_State_Penalty> (1)
  0.0000

>  <r_epik_Charging_Adjusted_Penalty> (1)
0

>  <i_epik_Tot_Q> (1)
0

>  <i_epik_Tot_abs_Q> (1)
0

>  <s_lp_Force_Field> (1)
S-OPLS

>  <r_lp_Energy> (1)
64.0149

>  <b_lp_Chiralities_Consistent> (1)
1

$$$$
