9117_Benzo(ghi)perylene
                    3D
 Schrodinger Suite 2021-3.
 34 39  0  0  1  0            999 V2000
   -1.0836   -1.8010   -3.3914 C   0  0  0  0  0  0
   -0.7362   -2.8446   -2.5491 C   0  0  0  0  0  0
   -0.2952   -2.5812   -1.2399 C   0  0  0  0  0  0
   -0.2088   -1.2288   -0.7873 C   0  0  0  0  0  0
   -0.5683   -0.1578   -1.6605 C   0  0  0  0  0  0
   -1.0008   -0.4770   -2.9535 C   0  0  0  0  0  0
   -0.4721    1.2250   -1.1750 C   0  0  0  0  0  0
   -0.8052    2.3298   -1.9680 C   0  0  0  0  0  0
   -0.7055    3.6360   -1.4832 C   0  0  0  0  0  0
   -0.2695    3.8758   -0.1904 C   0  0  0  0  0  0
    0.0784    2.8031    0.6499 C   0  0  0  0  0  0
   -0.0218    1.4653    0.1584 C   0  0  0  0  0  0
    0.3336    0.3770    1.0174 C   0  0  0  0  0  0
    0.7797    0.6287    2.3408 C   0  0  0  0  0  0
    0.8684    1.9806    2.8020 C   0  0  0  0  0  0
    0.5324    3.0219    1.9917 C   0  0  0  0  0  0
    1.1268   -0.4628    3.1750 C   0  0  0  0  0  0
    1.0373   -1.7564    2.7209 C   0  0  0  0  0  0
    0.5950   -2.0385    1.4046 C   0  0  0  0  0  0
    0.2405   -0.9657    0.5461 C   0  0  0  0  0  0
    0.4971   -3.3815    0.9198 C   0  0  0  0  0  0
    0.0705   -3.6410   -0.3469 C   0  0  0  0  0  0
   -1.4238   -2.0088   -4.4017 H   0  0  0  0  0  0
   -0.8005   -3.8745   -2.8897 H   0  0  0  0  0  0
   -1.2820    0.3098   -3.6436 H   0  0  0  0  0  0
   -1.1506    2.1860   -2.9847 H   0  0  0  0  0  0
   -0.9733    4.4668   -2.1294 H   0  0  0  0  0  0
   -0.1918    4.8917    0.1870 H   0  0  0  0  0  0
    1.2111    2.1606    3.8175 H   0  0  0  0  0  0
    0.6032    4.0450    2.3511 H   0  0  0  0  0  0
    1.4674   -0.2596    4.1868 H   0  0  0  0  0  0
    1.3066   -2.5849    3.3706 H   0  0  0  0  0  0
    0.7715   -4.1946    1.5867 H   0  0  0  0  0  0
   -0.0004   -4.6644   -0.7057 H   0  0  0  0  0  0
  1  6  1  0  0  0
  1  2  2  0  0  0
  1 23  1  0  0  0
  2  3  1  0  0  0
  2 24  1  0  0  0
  3 22  1  0  0  0
  3  4  2  0  0  0
  4 20  1  0  0  0
  4  5  1  0  0  0
  5  6  2  0  0  0
  5  7  1  0  0  0
  6 25  1  0  0  0
  7 12  1  0  0  0
  7  8  2  0  0  0
  8  9  1  0  0  0
  8 26  1  0  0  0
  9 10  2  0  0  0
  9 27  1  0  0  0
 10 11  1  0  0  0
 10 28  1  0  0  0
 11 16  1  0  0  0
 11 12  2  0  0  0
 12 13  1  0  0  0
 13 20  1  0  0  0
 13 14  2  0  0  0
 14 15  1  0  0  0
 14 17  1  0  0  0
 15 16  2  0  0  0
 15 29  1  0  0  0
 16 30  1  0  0  0
 17 18  2  0  0  0
 17 31  1  0  0  0
 18 19  1  0  0  0
 18 32  1  0  0  0
 19 20  2  0  0  0
 19 21  1  0  0  0
 21 22  2  0  0  0
 21 33  1  0  0  0
 22 34  1  0  0  0
M  END
>  <i_m_Spin_multiplicity> (1)
1

>  <s_j_Task> (1)
Single Point

>  <s_j_QM_Method> (1)
DFT(b3lyp-d3)

>  <s_j_QM_Basis> (1)
cc-pvtz(-f)

>  <i_j_Number_of_canonical_orbitals> (1)
591

>  <i_j_Geometry_convergence_category> (1)
3

>  <r_j_Gas_Phase_Energy> (1)
-845.921121176627

>  <r_j_Final_Energy> (1)
-845.921121176627

>  <r_j_HOMO> (1)
-0.19951682023016

>  <r_j_LUMO> (1)
-0.0719160364339788

>  <r_j_Polarizability> (1)
265.078552816714

>  <r_j_QM_Dipole_(debye)> (1)
0.0369444788671018

>  <r_j_QM_Dipole_X_(debye)> (1)
-0.012286825150213

>  <r_j_QM_Dipole_Y_(debye)> (1)
0.0133930197118316

>  <r_j_QM_Dipole_Z_(debye)> (1)
-0.0321645063616453

>  <r_j_Lowest_Frequency_(cm-1)> (1)
78.2300699979855

>  <r_j_Highest_Frequency_(cm-1)> (1)
3168.31906878124

>  <r_j_2nd_Lowest_Frequency_(cm-1)> (1)
110.433703610226

>  <i_j_Num_Negative_Frequencies> (1)
0

>  <r_j_Zero_Point_Energy_(kcal/mol)> (1)
166.861378238495

>  <r_j_Entropy_(cal/mol/K)_298.15K_1.00E+00atm> (1)
110.940754138289

>  <r_j_Enthalpy_(kcal/mol)_298.15K_1.00E+00atm> (1)
8.81587048967272

>  <r_j_Free_Energy_(kcal/mol)_298.15K_1.00E+00atm> (1)
-24.2611153566583

>  <r_j_Internal_Energy_(kcal/mol)_298.15K_1.00E+00atm> (1)
8.22338490084544

>  <r_j_Heat_Capacity_(cal/mol/K)_298.15K_1.00E+00atm> (1)
59.4996564232722

>  <r_j_ln(Q)_298.15K_1.00E+00atm> (1)
40.9480261025067

>  <r_j_Total_Internal_Energy_(au)_298.15K_1.00E+00atm> (1)
-845.642105844572

>  <r_j_Total_Enthalpy_(au)_298.15K_1.00E+00atm> (1)
-845.64116165868

>  <r_j_Total_Free_Energy_(au)_298.15K_1.00E+00atm> (1)
-845.693873191219

>  <r_lp_tautomer_probability> (1)
1

>  <r_epik_Ionization_Penalty> (1)
  0.0000

>  <r_epik_Ionization_Penalty_Charging> (1)
  0.0000

>  <r_epik_Ionization_Penalty_Neutral> (1)
  0.0000

>  <r_epik_State_Penalty> (1)
  0.0000

>  <r_epik_Charging_Adjusted_Penalty> (1)
0

>  <i_epik_Tot_Q> (1)
0

>  <i_epik_Tot_abs_Q> (1)
0

>  <s_lp_Force_Field> (1)
S-OPLS

>  <r_lp_Energy> (1)
57.5879

>  <b_lp_Chiralities_Consistent> (1)
1

$$$$
