9119_Dibenzo(a,l)pyrene
                    3D
 Schrodinger Suite 2021-3.
 38 43  0  0  1  0            999 V2000
   -0.3874   -4.5136    1.9159 C   0  0  0  0  0  0
    0.1081   -4.4293    0.5937 C   0  0  0  0  0  0
    0.2939   -3.2065   -0.0099 C   0  0  0  0  0  0
    0.0021   -1.9838    0.6634 C   0  0  0  0  0  0
   -0.6164   -2.0895    1.9564 C   0  0  0  0  0  0
   -0.7577   -3.3662    2.5707 C   0  0  0  0  0  0
   -1.1343   -0.9375    2.5785 C   0  0  0  0  0  0
   -1.1392    0.2865    1.9322 C   0  0  0  0  0  0
   -1.8092    1.4243    2.5057 C   0  0  0  0  0  0
   -1.8914    2.5995    1.8391 C   0  0  0  0  0  0
   -1.2914    2.7616    0.5402 C   0  0  0  0  0  0
   -0.5404    1.6863   -0.0251 C   0  0  0  0  0  0
   -0.4715    0.4236    0.6635 C   0  0  0  0  0  0
    0.2053   -0.6769    0.0910 C   0  0  0  0  0  0
    1.0898   -0.4184   -1.0466 C   0  0  0  0  0  0
    2.1443   -1.2980   -1.3937 C   0  0  0  0  0  0
    2.9674   -1.0607   -2.4789 C   0  0  0  0  0  0
    2.7792    0.0885   -3.2576 C   0  0  0  0  0  0
    1.8166    1.0096   -2.8888 C   0  0  0  0  0  0
    0.9769    0.8024   -1.7729 C   0  0  0  0  0  0
    0.0812    1.8526   -1.2928 C   0  0  0  0  0  0
   -0.1294    3.0539   -1.9915 C   0  0  0  0  0  0
   -0.8830    4.0873   -1.4447 C   0  0  0  0  0  0
   -1.4464    3.9526   -0.1807 C   0  0  0  0  0  0
   -0.5108   -5.4825    2.3907 H   0  0  0  0  0  0
    0.3240   -5.3383    0.0399 H   0  0  0  0  0  0
    0.6166   -3.1801   -1.0414 H   0  0  0  0  0  0
   -1.1968   -3.4133    3.5638 H   0  0  0  0  0  0
   -1.5971   -1.0285    3.5583 H   0  0  0  0  0  0
   -2.2743    1.3057    3.4806 H   0  0  0  0  0  0
   -2.4249    3.4437    2.2679 H   0  0  0  0  0  0
    2.3477   -2.1538   -0.7649 H   0  0  0  0  0  0
    3.7710   -1.7540   -2.7084 H   0  0  0  0  0  0
    3.4142    0.2812   -4.1172 H   0  0  0  0  0  0
    1.7383    1.9301   -3.4549 H   0  0  0  0  0  0
    0.3023    3.1942   -2.9754 H   0  0  0  0  0  0
   -1.0242    5.0053   -2.0076 H   0  0  0  0  0  0
   -2.0231    4.7642    0.2546 H   0  0  0  0  0  0
  1  6  1  0  0  0
  1  2  2  0  0  0
  1 25  1  0  0  0
  2  3  1  0  0  0
  2 26  1  0  0  0
  3  4  2  0  0  0
  3 27  1  0  0  0
  4 14  1  0  0  0
  4  5  1  0  0  0
  5  6  2  0  0  0
  5  7  1  0  0  0
  6 28  1  0  0  0
  7  8  2  0  0  0
  7 29  1  0  0  0
  8 13  1  0  0  0
  8  9  1  0  0  0
  9 10  2  0  0  0
  9 30  1  0  0  0
 10 11  1  0  0  0
 10 31  1  0  0  0
 11 24  1  0  0  0
 11 12  2  0  0  0
 12 21  1  0  0  0
 12 13  1  0  0  0
 13 14  2  0  0  0
 14 15  1  0  0  0
 15 20  1  0  0  0
 15 16  2  0  0  0
 16 17  1  0  0  0
 16 32  1  0  0  0
 17 18  2  0  0  0
 17 33  1  0  0  0
 18 19  1  0  0  0
 18 34  1  0  0  0
 19 20  2  0  0  0
 19 35  1  0  0  0
 20 21  1  0  0  0
 21 22  2  0  0  0
 22 23  1  0  0  0
 22 36  1  0  0  0
 23 24  2  0  0  0
 23 37  1  0  0  0
 24 38  1  0  0  0
M  END
>  <i_m_Spin_multiplicity> (1)
1

>  <s_j_Task> (1)
Single Point

>  <s_j_QM_Method> (1)
DFT(b3lyp-d3)

>  <s_j_QM_Basis> (1)
cc-pvtz(-f)

>  <i_j_Number_of_canonical_orbitals> (1)
652

>  <i_j_Geometry_convergence_category> (1)
0

>  <r_j_Gas_Phase_Energy> (1)
-923.341480649196

>  <r_j_Final_Energy> (1)
-923.341480649196

>  <r_j_HOMO> (1)
-0.200093083832251

>  <r_j_LUMO> (1)
-0.0775516325108873

>  <r_j_Polarizability> (1)
301.564324868846

>  <r_j_QM_Dipole_(debye)> (1)
0.0506524839373638

>  <r_j_QM_Dipole_X_(debye)> (1)
-0.012511289455424

>  <r_j_QM_Dipole_Y_(debye)> (1)
0.033679883802589

>  <r_j_QM_Dipole_Z_(debye)> (1)
-0.0357044421918562

>  <r_j_Lowest_Frequency_(cm-1)> (1)
69.8984618826081

>  <r_j_Highest_Frequency_(cm-1)> (1)
3188.76104868993

>  <r_j_2nd_Lowest_Frequency_(cm-1)> (1)
101.146766372711

>  <i_j_Num_Negative_Frequencies> (1)
0

>  <r_j_Zero_Point_Energy_(kcal/mol)> (1)
188.178298388677

>  <r_j_Entropy_(cal/mol/K)_298.15K_1.00E+00atm> (1)
119.451307983742

>  <r_j_Enthalpy_(kcal/mol)_298.15K_1.00E+00atm> (1)
9.99885156531428

>  <r_j_Free_Energy_(kcal/mol)_298.15K_1.00E+00atm> (1)
-25.6155559100383

>  <r_j_Internal_Energy_(kcal/mol)_298.15K_1.00E+00atm> (1)
9.40636597648701

>  <r_j_Heat_Capacity_(cal/mol/K)_298.15K_1.00E+00atm> (1)
67.0043255985178

>  <r_j_ln(Q)_298.15K_1.00E+00atm> (1)
43.2340573223729

>  <r_j_Total_Internal_Energy_(au)_298.15K_1.00E+00atm> (1)
-923.026609441969

>  <r_j_Total_Enthalpy_(au)_298.15K_1.00E+00atm> (1)
-923.025665256077

>  <r_j_Total_Free_Energy_(au)_298.15K_1.00E+00atm> (1)
-923.082420427397

>  <r_lp_tautomer_probability> (1)
1

>  <r_epik_Ionization_Penalty> (1)
  0.0000

>  <r_epik_Ionization_Penalty_Charging> (1)
  0.0000

>  <r_epik_Ionization_Penalty_Neutral> (1)
  0.0000

>  <r_epik_State_Penalty> (1)
  0.0000

>  <r_epik_Charging_Adjusted_Penalty> (1)
0

>  <i_epik_Tot_Q> (1)
0

>  <i_epik_Tot_abs_Q> (1)
0

>  <s_lp_Force_Field> (1)
S-OPLS

>  <r_lp_Energy> (1)
76.4382

>  <b_lp_Chiralities_Consistent> (1)
1

$$$$
