9126_Dibenzo[a,e]pyrene
                    3D
 Schrodinger Suite 2021-3.
 38 43  0  0  1  0            999 V2000
    2.3341   -3.7283   -2.7005 C   0  0  0  0  0  0
    3.3874   -2.7921   -2.6011 C   0  0  0  0  0  0
    3.2037   -1.5994   -1.9359 C   0  0  0  0  0  0
    1.9606   -1.2727   -1.3328 C   0  0  0  0  0  0
    1.7129   -0.0402   -0.6254 C   0  0  0  0  0  0
    0.4367    0.2078   -0.0498 C   0  0  0  0  0  0
   -0.6171   -0.7686   -0.1687 C   0  0  0  0  0  0
   -0.3552   -1.9400   -0.8510 C   0  0  0  0  0  0
    0.9006   -2.2232   -1.4369 C   0  0  0  0  0  0
    1.1168   -3.4455   -2.1284 C   0  0  0  0  0  0
   -1.9314   -0.4948    0.4338 C   0  0  0  0  0  0
   -2.9907   -1.4230    0.3412 C   0  0  0  0  0  0
   -4.2302   -1.1765    0.9038 C   0  0  0  0  0  0
   -4.4535    0.0241    1.5873 C   0  0  0  0  0  0
   -3.4314    0.9502    1.6919 C   0  0  0  0  0  0
   -2.1587    0.7217    1.1266 C   0  0  0  0  0  0
   -1.0796    1.7117    1.2427 C   0  0  0  0  0  0
   -1.2531    2.9253    1.9142 C   0  0  0  0  0  0
   -0.2223    3.8645    2.0212 C   0  0  0  0  0  0
    1.0120    3.6094    1.4563 C   0  0  0  0  0  0
    1.2383    2.4007    0.7691 C   0  0  0  0  0  0
    0.1924    1.4358    0.6541 C   0  0  0  0  0  0
    2.5059    2.1192    0.1798 C   0  0  0  0  0  0
    2.7319    0.9535   -0.4858 C   0  0  0  0  0  0
    2.4889   -4.6654   -3.2269 H   0  0  0  0  0  0
    4.3498   -3.0140   -3.0526 H   0  0  0  0  0  0
    4.0338   -0.9057   -1.8797 H   0  0  0  0  0  0
   -1.1229   -2.6964   -0.9606 H   0  0  0  0  0  0
    0.2968   -4.1559   -2.1963 H   0  0  0  0  0  0
   -2.8450   -2.3602   -0.1820 H   0  0  0  0  0  0
   -5.0225   -1.9134    0.8131 H   0  0  0  0  0  0
   -5.4211    0.2315    2.0341 H   0  0  0  0  0  0
   -3.6283    1.8719    2.2258 H   0  0  0  0  0  0
   -2.2054    3.1642    2.3713 H   0  0  0  0  0  0
   -0.3999    4.7953    2.5517 H   0  0  0  0  0  0
    1.8195    4.3324    1.5336 H   0  0  0  0  0  0
    3.2963    2.8592    0.2727 H   0  0  0  0  0  0
    3.7100    0.7813   -0.9178 H   0  0  0  0  0  0
  1 10  1  0  0  0
  1  2  2  0  0  0
  1 25  1  0  0  0
  2  3  1  0  0  0
  2 26  1  0  0  0
  3  4  2  0  0  0
  3 27  1  0  0  0
  4  9  1  0  0  0
  4  5  1  0  0  0
  5 24  1  0  0  0
  5  6  2  0  0  0
  6 22  1  0  0  0
  6  7  1  0  0  0
  7  8  2  0  0  0
  7 11  1  0  0  0
  8  9  1  0  0  0
  8 28  1  0  0  0
  9 10  2  0  0  0
 10 29  1  0  0  0
 11 16  1  0  0  0
 11 12  2  0  0  0
 12 13  1  0  0  0
 12 30  1  0  0  0
 13 14  2  0  0  0
 13 31  1  0  0  0
 14 15  1  0  0  0
 14 32  1  0  0  0
 15 16  2  0  0  0
 15 33  1  0  0  0
 16 17  1  0  0  0
 17 22  1  0  0  0
 17 18  2  0  0  0
 18 19  1  0  0  0
 18 34  1  0  0  0
 19 20  2  0  0  0
 19 35  1  0  0  0
 20 21  1  0  0  0
 20 36  1  0  0  0
 21 22  2  0  0  0
 21 23  1  0  0  0
 23 24  2  0  0  0
 23 37  1  0  0  0
 24 38  1  0  0  0
M  END
>  <i_m_Spin_multiplicity> (1)
1

>  <s_j_Task> (1)
Single Point

>  <s_j_QM_Method> (1)
DFT(b3lyp-d3)

>  <s_j_QM_Basis> (1)
cc-pvtz(-f)

>  <i_j_Number_of_canonical_orbitals> (1)
652

>  <i_j_Geometry_convergence_category> (1)
3

>  <r_j_Gas_Phase_Energy> (1)
-923.352994743182

>  <r_j_Final_Energy> (1)
-923.352994743182

>  <r_j_HOMO> (1)
-0.200326100113984

>  <r_j_LUMO> (1)
-0.0717677988032826

>  <r_j_Polarizability> (1)
302.45232458827

>  <r_j_QM_Dipole_(debye)> (1)
0.0736789693127206

>  <r_j_QM_Dipole_X_(debye)> (1)
-0.0702398453437596

>  <r_j_QM_Dipole_Y_(debye)> (1)
-0.0116579746396098

>  <r_j_QM_Dipole_Z_(debye)> (1)
0.01894851636334

>  <r_j_Lowest_Frequency_(cm-1)> (1)
65.0671750364848

>  <r_j_Highest_Frequency_(cm-1)> (1)
3174.03660831708

>  <r_j_2nd_Lowest_Frequency_(cm-1)> (1)
82.3559612320007

>  <i_j_Num_Negative_Frequencies> (1)
0

>  <r_j_Zero_Point_Energy_(kcal/mol)> (1)
188.296698108532

>  <r_j_Entropy_(cal/mol/K)_298.15K_1.00E+00atm> (1)
120.175190525103

>  <r_j_Enthalpy_(kcal/mol)_298.15K_1.00E+00atm> (1)
10.0601424743838

>  <r_j_Free_Energy_(kcal/mol)_298.15K_1.00E+00atm> (1)
-25.7700905806756

>  <r_j_Internal_Energy_(kcal/mol)_298.15K_1.00E+00atm> (1)
9.46765688555656

>  <r_j_Heat_Capacity_(cal/mol/K)_298.15K_1.00E+00atm> (1)
67.0942598743929

>  <r_j_ln(Q)_298.15K_1.00E+00atm> (1)
43.494881675828

>  <r_j_Total_Internal_Energy_(au)_298.15K_1.00E+00atm> (1)
-923.037837180709

>  <r_j_Total_Enthalpy_(au)_298.15K_1.00E+00atm> (1)
-923.036892994817

>  <r_j_Total_Free_Energy_(au)_298.15K_1.00E+00atm> (1)
-923.093992106094

>  <r_lp_tautomer_probability> (1)
1

>  <r_epik_Ionization_Penalty> (1)
  0.0000

>  <r_epik_Ionization_Penalty_Charging> (1)
  0.0000

>  <r_epik_Ionization_Penalty_Neutral> (1)
  0.0000

>  <r_epik_State_Penalty> (1)
  0.0000

>  <r_epik_Charging_Adjusted_Penalty> (1)
0

>  <i_epik_Tot_Q> (1)
0

>  <i_epik_Tot_abs_Q> (1)
0

>  <s_lp_Force_Field> (1)
S-OPLS

>  <r_lp_Energy> (1)
64.4922

>  <b_lp_Chiralities_Consistent> (1)
1

$$$$
