9131_Indeno[1,2,3-cd]pyrene
                    3D
 Schrodinger Suite 2021-3.
 34 39  0  0  1  0            999 V2000
   -2.2952    2.5510   -3.6675 C   0  0  0  0  0  0
   -1.8982    3.5599   -2.7852 C   0  0  0  0  0  0
   -1.2091    3.2474   -1.6073 C   0  0  0  0  0  0
   -0.9236    1.9164   -1.3250 C   0  0  0  0  0  0
   -1.3296    0.8838   -2.2274 C   0  0  0  0  0  0
   -2.0137    1.2069   -3.3949 C   0  0  0  0  0  0
   -0.8958   -0.4127   -1.6739 C   0  0  0  0  0  0
   -0.2498   -0.1183   -0.4683 C   0  0  0  0  0  0
   -0.2275    1.2854   -0.1885 C   0  0  0  0  0  0
    0.3751    1.7151    0.9631 C   0  0  0  0  0  0
    0.9720    0.7543    1.8674 C   0  0  0  0  0  0
    1.6030    1.1370    3.0630 C   0  0  0  0  0  0
    2.1681    0.1841    3.9122 C   0  0  0  0  0  0
    2.1262   -1.1760    3.6043 C   0  0  0  0  0  0
    1.5083   -1.6166    2.4224 C   0  0  0  0  0  0
    0.9341   -0.6449    1.5603 C   0  0  0  0  0  0
    0.3081   -1.0793    0.3657 C   0  0  0  0  0  0
    0.2239   -2.4460   -0.0184 C   0  0  0  0  0  0
    0.8152   -3.4031    0.8759 C   0  0  0  0  0  0
    1.4236   -3.0034    2.0332 C   0  0  0  0  0  0
   -0.4276   -2.7483   -1.2354 C   0  0  0  0  0  0
   -0.9822   -1.7560   -2.0579 C   0  0  0  0  0  0
   -2.8290    2.8139   -4.5762 H   0  0  0  0  0  0
   -2.1269    4.5962   -3.0160 H   0  0  0  0  0  0
   -0.9024    4.0350   -0.9241 H   0  0  0  0  0  0
   -2.3257    0.4287   -4.0860 H   0  0  0  0  0  0
    0.4216    2.7687    1.2263 H   0  0  0  0  0  0
    1.6495    2.1902    3.3263 H   0  0  0  0  0  0
    2.6495    0.5092    4.8299 H   0  0  0  0  0  0
    2.5722   -1.9017    4.2791 H   0  0  0  0  0  0
    0.7732   -4.4586    0.6201 H   0  0  0  0  0  0
    1.8642   -3.7448    2.6948 H   0  0  0  0  0  0
   -0.4997   -3.7882   -1.5420 H   0  0  0  0  0  0
   -1.4725   -2.0431   -2.9840 H   0  0  0  0  0  0
  1  6  1  0  0  0
  1  2  2  0  0  0
  1 23  1  0  0  0
  2  3  1  0  0  0
  2 24  1  0  0  0
  3  4  2  0  0  0
  3 25  1  0  0  0
  4  9  1  0  0  0
  4  5  1  0  0  0
  5  6  2  0  0  0
  5  7  1  0  0  0
  6 26  1  0  0  0
  7 22  1  0  0  0
  7  8  2  0  0  0
  8 17  1  0  0  0
  8  9  1  0  0  0
  9 10  2  0  0  0
 10 11  1  0  0  0
 10 27  1  0  0  0
 11 16  1  0  0  0
 11 12  2  0  0  0
 12 13  1  0  0  0
 12 28  1  0  0  0
 13 14  2  0  0  0
 13 29  1  0  0  0
 14 15  1  0  0  0
 14 30  1  0  0  0
 15 20  1  0  0  0
 15 16  2  0  0  0
 16 17  1  0  0  0
 17 18  2  0  0  0
 18 19  1  0  0  0
 18 21  1  0  0  0
 19 20  2  0  0  0
 19 31  1  0  0  0
 20 32  1  0  0  0
 21 22  2  0  0  0
 21 33  1  0  0  0
 22 34  1  0  0  0
M  END
>  <i_m_Spin_multiplicity> (1)
1

>  <s_j_Task> (1)
Single Point

>  <s_j_QM_Method> (1)
DFT(b3lyp-d3)

>  <s_j_QM_Basis> (1)
cc-pvtz(-f)

>  <i_j_Number_of_canonical_orbitals> (1)
591

>  <i_j_Geometry_convergence_category> (1)
0

>  <r_j_Gas_Phase_Energy> (1)
-845.894397712234

>  <r_j_Final_Energy> (1)
-845.894397712234

>  <r_j_HOMO> (1)
-0.206470848155275

>  <r_j_LUMO> (1)
-0.0860250090228737

>  <r_j_Polarizability> (1)
277.520459314078

>  <r_j_QM_Dipole_(debye)> (1)
0.617712150049386

>  <r_j_QM_Dipole_X_(debye)> (1)
0.303556761222979

>  <r_j_QM_Dipole_Y_(debye)> (1)
-0.106308994521513

>  <r_j_QM_Dipole_Z_(debye)> (1)
0.527370828467289

>  <r_j_Lowest_Frequency_(cm-1)> (1)
81.8127397443322

>  <r_j_Highest_Frequency_(cm-1)> (1)
3146.98059505981

>  <r_j_2nd_Lowest_Frequency_(cm-1)> (1)
110.446224156183

>  <i_j_Num_Negative_Frequencies> (1)
0

>  <r_j_Zero_Point_Energy_(kcal/mol)> (1)
166.257894963673

>  <r_j_Entropy_(cal/mol/K)_298.15K_1.00E+00atm> (1)
112.248569194184

>  <r_j_Enthalpy_(kcal/mol)_298.15K_1.00E+00atm> (1)
8.95625791707829

>  <r_j_Free_Energy_(kcal/mol)_298.15K_1.00E+00atm> (1)
-24.5106529881676

>  <r_j_Internal_Energy_(kcal/mol)_298.15K_1.00E+00atm> (1)
8.36377232825101

>  <r_j_Heat_Capacity_(cal/mol/K)_298.15K_1.00E+00atm> (1)
59.8931600626631

>  <r_j_ln(Q)_298.15K_1.00E+00atm> (1)
41.369196906008

>  <r_j_Total_Internal_Energy_(au)_298.15K_1.00E+00atm> (1)
-845.616120370393

>  <r_j_Total_Enthalpy_(au)_298.15K_1.00E+00atm> (1)
-845.615176184501

>  <r_j_Total_Free_Energy_(au)_298.15K_1.00E+00atm> (1)
-845.668509102178

>  <r_lp_tautomer_probability> (1)
1

>  <r_epik_Ionization_Penalty> (1)
  0.0000

>  <r_epik_Ionization_Penalty_Charging> (1)
  0.0000

>  <r_epik_Ionization_Penalty_Neutral> (1)
  0.0000

>  <r_epik_State_Penalty> (1)
  0.0000

>  <r_epik_Charging_Adjusted_Penalty> (1)
0

>  <i_epik_Tot_Q> (1)
0

>  <i_epik_Tot_abs_Q> (1)
0

>  <s_lp_Force_Field> (1)
S-OPLS

>  <r_lp_Energy> (1)
50.5031

>  <b_lp_Chiralities_Consistent> (1)
1

$$$$
