9136_Benzo(c)phenanthrene
                    3D
 Schrodinger Suite 2021-3.
 30 33  0  0  1  0            999 V2000
    0.0354    1.0113    0.0873 C   0  0  0  0  0  0
   -1.1961    1.6844    0.1987 C   0  0  0  0  0  0
   -1.2542    3.0615    0.1174 C   0  0  0  0  0  0
   -0.0904    3.8492   -0.0895 C   0  0  0  0  0  0
    1.1651    3.1601   -0.0784 C   0  0  0  0  0  0
    1.1952    1.7455   -0.0280 C   0  0  0  0  0  0
    2.3830    3.9046   -0.0437 C   0  0  0  0  0  0
    2.3569    5.2613    0.0571 C   0  0  0  0  0  0
    1.1250    5.9834   -0.0048 C   0  0  0  0  0  0
   -0.0996    5.2980   -0.2071 C   0  0  0  0  0  0
   -1.2757    6.0935   -0.5180 C   0  0  0  0  0  0
   -2.4550    5.5697   -1.1119 C   0  0  0  0  0  0
   -3.5557    6.3632   -1.3674 C   0  0  0  0  0  0
   -3.5389    7.7351   -1.0518 C   0  0  0  0  0  0
   -2.3839    8.2965   -0.5535 C   0  0  0  0  0  0
   -1.2305    7.5107   -0.3156 C   0  0  0  0  0  0
   -0.0013    8.1359    0.0543 C   0  0  0  0  0  0
    1.1434    7.4052    0.1394 C   0  0  0  0  0  0
    0.0737   -0.0728    0.1338 H   0  0  0  0  0  0
   -2.1081    1.1201    0.3692 H   0  0  0  0  0  0
   -2.2065    3.5493    0.2709 H   0  0  0  0  0  0
    2.1615    1.2480   -0.0513 H   0  0  0  0  0  0
    3.3259    3.3646   -0.0382 H   0  0  0  0  0  0
    3.2795    5.8253    0.1644 H   0  0  0  0  0  0
   -2.4789    4.5355   -1.4252 H   0  0  0  0  0  0
   -4.4333    5.9253   -1.8336 H   0  0  0  0  0  0
   -4.4133    8.3512   -1.2383 H   0  0  0  0  0  0
   -2.3292    9.3653   -0.3629 H   0  0  0  0  0  0
    0.0132    9.2117    0.2062 H   0  0  0  0  0  0
    2.0946    7.8899    0.3419 H   0  0  0  0  0  0
  1  6  1  0  0  0
  1  2  2  0  0  0
  1 19  1  0  0  0
  2  3  1  0  0  0
  2 20  1  0  0  0
  3  4  2  0  0  0
  3 21  1  0  0  0
  4 10  1  0  0  0
  4  5  1  0  0  0
  5  6  2  0  0  0
  5  7  1  0  0  0
  6 22  1  0  0  0
  7  8  2  0  0  0
  7 23  1  0  0  0
  8  9  1  0  0  0
  8 24  1  0  0  0
  9 18  1  0  0  0
  9 10  2  0  0  0
 10 11  1  0  0  0
 11 16  1  0  0  0
 11 12  2  0  0  0
 12 13  1  0  0  0
 12 25  1  0  0  0
 13 14  2  0  0  0
 13 26  1  0  0  0
 14 15  1  0  0  0
 14 27  1  0  0  0
 15 16  2  0  0  0
 15 28  1  0  0  0
 16 17  1  0  0  0
 17 18  2  0  0  0
 17 29  1  0  0  0
 18 30  1  0  0  0
M  END
>  <i_m_Spin_multiplicity> (1)
1

>  <s_j_Task> (1)
Single Point

>  <s_j_QM_Method> (1)
DFT(b3lyp-d3)

>  <s_j_QM_Basis> (1)
cc-pvtz(-f)

>  <i_j_Number_of_canonical_orbitals> (1)
505

>  <i_j_Geometry_convergence_category> (1)
0

>  <r_j_Gas_Phase_Energy> (1)
-693.398607282257

>  <r_j_Final_Energy> (1)
-693.398607282257

>  <r_j_HOMO> (1)
-0.181902072041344

>  <r_j_LUMO> (1)
-0.0309893950662394

>  <r_j_Polarizability> (1)
215.844641118725

>  <r_j_QM_Dipole_(debye)> (1)
0.0755225855134252

>  <r_j_QM_Dipole_X_(debye)> (1)
0.065607002280644

>  <r_j_QM_Dipole_Y_(debye)> (1)
0.0361555886422516

>  <r_j_QM_Dipole_Z_(debye)> (1)
0.00959977001351983

>  <r_j_Lowest_Frequency_(cm-1)> (1)
99.3990208894296

>  <r_j_Highest_Frequency_(cm-1)> (1)
3194.32212264119

>  <r_j_2nd_Lowest_Frequency_(cm-1)> (1)
102.758529966906

>  <i_j_Num_Negative_Frequencies> (1)
0

>  <r_j_Zero_Point_Energy_(kcal/mol)> (1)
150.795084109033

>  <r_j_Entropy_(cal/mol/K)_298.15K_1.00E+00atm> (1)
105.488948505165

>  <r_j_Enthalpy_(kcal/mol)_298.15K_1.00E+00atm> (1)
7.94827208266119

>  <r_j_Free_Energy_(kcal/mol)_298.15K_1.00E+00atm> (1)
-23.5032579141537

>  <r_j_Internal_Energy_(kcal/mol)_298.15K_1.00E+00atm> (1)
7.35578649383391

>  <r_j_Heat_Capacity_(cal/mol/K)_298.15K_1.00E+00atm> (1)
51.4769269731188

>  <r_j_ln(Q)_298.15K_1.00E+00atm> (1)
39.6689106998779

>  <r_j_Total_Internal_Energy_(au)_298.15K_1.00E+00atm> (1)
-693.146577825869

>  <r_j_Total_Enthalpy_(au)_298.15K_1.00E+00atm> (1)
-693.145633639976

>  <r_j_Total_Free_Energy_(au)_298.15K_1.00E+00atm> (1)
-693.19575484372

>  <r_lp_tautomer_probability> (1)
1

>  <r_epik_Ionization_Penalty> (1)
  0.0000

>  <r_epik_Ionization_Penalty_Charging> (1)
  0.0000

>  <r_epik_Ionization_Penalty_Neutral> (1)
  0.0000

>  <r_epik_State_Penalty> (1)
  0.0000

>  <r_epik_Charging_Adjusted_Penalty> (1)
0

>  <i_epik_Tot_Q> (1)
0

>  <i_epik_Tot_abs_Q> (1)
0

>  <s_lp_Force_Field> (1)
S-OPLS

>  <r_lp_Energy> (1)
54.6882

>  <b_lp_Chiralities_Consistent> (1)
1

$$$$
