9142_Perylene
                    3D
 Schrodinger Suite 2021-3.
 32 36  0  0  1  0            999 V2000
    3.4460   -1.5528    0.3736 C   0  0  0  0  0  0
    3.4168   -0.1780    0.3846 C   0  0  0  0  0  0
    2.1781    0.5102    0.4040 C   0  0  0  0  0  0
    0.9528   -0.2365    0.4121 C   0  0  0  0  0  0
    1.0031   -1.6680    0.4004 C   0  0  0  0  0  0
    2.2487   -2.2886    0.3814 C   0  0  0  0  0  0
   -0.2573   -2.4360    0.4089 C   0  0  0  0  0  0
   -0.2770   -3.8273    0.3985 C   0  0  0  0  0  0
   -1.4796   -4.5540    0.4065 C   0  0  0  0  0  0
   -2.6875   -3.8972    0.4252 C   0  0  0  0  0  0
   -2.7307   -2.4806    0.4365 C   0  0  0  0  0  0
   -1.5053   -1.7340    0.4284 C   0  0  0  0  0  0
   -1.5556   -0.3025    0.4399 C   0  0  0  0  0  0
   -2.8013    0.3175    0.4586 C   0  0  0  0  0  0
   -3.9987   -0.4180    0.4665 C   0  0  0  0  0  0
   -3.9695   -1.7927    0.4557 C   0  0  0  0  0  0
   -0.2953    0.4655    0.4317 C   0  0  0  0  0  0
   -0.2756    1.8569    0.4423 C   0  0  0  0  0  0
    0.9270    2.5837    0.4343 C   0  0  0  0  0  0
    2.1350    1.9268    0.4155 C   0  0  0  0  0  0
    4.3951   -2.0805    0.3587 H   0  0  0  0  0  0
    4.3376    0.3989    0.3787 H   0  0  0  0  0  0
    2.3196   -3.3696    0.3722 H   0  0  0  0  0  0
    0.6512   -4.3859    0.3838 H   0  0  0  0  0  0
   -1.4456   -5.6395    0.3979 H   0  0  0  0  0  0
   -3.6224   -4.4508    0.4316 H   0  0  0  0  0  0
   -2.8724    1.3986    0.4677 H   0  0  0  0  0  0
   -4.9477    0.1101    0.4811 H   0  0  0  0  0  0
   -4.8902   -2.3696    0.4616 H   0  0  0  0  0  0
   -1.2038    2.4156    0.4572 H   0  0  0  0  0  0
    0.8930    3.6692    0.4432 H   0  0  0  0  0  0
    3.0697    2.4806    0.4091 H   0  0  0  0  0  0
  1  6  1  0  0  0
  1  2  2  0  0  0
  1 21  1  0  0  0
  2  3  1  0  0  0
  2 22  1  0  0  0
  3 20  1  0  0  0
  3  4  2  0  0  0
  4 17  1  0  0  0
  4  5  1  0  0  0
  5  6  2  0  0  0
  5  7  1  0  0  0
  6 23  1  0  0  0
  7 12  1  0  0  0
  7  8  2  0  0  0
  8  9  1  0  0  0
  8 24  1  0  0  0
  9 10  2  0  0  0
  9 25  1  0  0  0
 10 11  1  0  0  0
 10 26  1  0  0  0
 11 16  1  0  0  0
 11 12  2  0  0  0
 12 13  1  0  0  0
 13 14  2  0  0  0
 13 17  1  0  0  0
 14 15  1  0  0  0
 14 27  1  0  0  0
 15 16  2  0  0  0
 15 28  1  0  0  0
 16 29  1  0  0  0
 17 18  2  0  0  0
 18 19  1  0  0  0
 18 30  1  0  0  0
 19 20  2  0  0  0
 19 31  1  0  0  0
 20 32  1  0  0  0
M  END
>  <i_m_Spin_multiplicity> (1)
1

>  <s_j_Task> (1)
Single Point

>  <s_j_QM_Method> (1)
DFT(b3lyp-d3)

>  <s_j_QM_Basis> (1)
cc-pvtz(-f)

>  <i_j_Number_of_canonical_orbitals> (1)
547

>  <i_j_Geometry_convergence_category> (1)
0

>  <r_j_Gas_Phase_Energy> (1)
-769.651936378037

>  <r_j_Final_Energy> (1)
-769.651936378037

>  <r_j_HOMO> (1)
-0.199346220990541

>  <r_j_LUMO> (1)
-0.0898812231801281

>  <r_j_Polarizability> (1)
245.932834951176

>  <r_j_QM_Dipole_(debye)> (1)
0.000583225677054047

>  <r_j_QM_Dipole_X_(debye)> (1)
-3.47794781256086e-05

>  <r_j_QM_Dipole_Y_(debye)> (1)
-0.000580937806823103

>  <r_j_QM_Dipole_Z_(debye)> (1)
3.81292916276314e-05

>  <r_j_Lowest_Frequency_(cm-1)> (1)
57.4396219672102

>  <r_j_Highest_Frequency_(cm-1)> (1)
3169.21889198098

>  <r_j_2nd_Lowest_Frequency_(cm-1)> (1)
114.830814738792

>  <i_j_Num_Negative_Frequencies> (1)
0

>  <r_j_Zero_Point_Energy_(kcal/mol)> (1)
158.687324716964

>  <r_j_Entropy_(cal/mol/K)_298.15K_1.00E+00atm> (1)
108.455293590552

>  <r_j_Enthalpy_(kcal/mol)_298.15K_1.00E+00atm> (1)
8.43483347854399

>  <r_j_Free_Energy_(kcal/mol)_298.15K_1.00E+00atm> (1)
-23.9011123054792

>  <r_j_Internal_Energy_(kcal/mol)_298.15K_1.00E+00atm> (1)
7.84234788971671

>  <r_j_Heat_Capacity_(cal/mol/K)_298.15K_1.00E+00atm> (1)
55.7343133714748

>  <r_j_ln(Q)_298.15K_1.00E+00atm> (1)
40.3404112373221

>  <r_j_Total_Internal_Energy_(au)_298.15K_1.00E+00atm> (1)
-769.386554450643

>  <r_j_Total_Enthalpy_(au)_298.15K_1.00E+00atm> (1)
-769.38561026475

>  <r_j_Total_Free_Energy_(au)_298.15K_1.00E+00atm> (1)
-769.437140874773

>  <r_lp_tautomer_probability> (1)
1

>  <r_epik_Ionization_Penalty> (1)
  0.0000

>  <r_epik_Ionization_Penalty_Charging> (1)
  0.0000

>  <r_epik_Ionization_Penalty_Neutral> (1)
  0.0000

>  <r_epik_State_Penalty> (1)
  0.0000

>  <r_epik_Charging_Adjusted_Penalty> (1)
0

>  <i_epik_Tot_Q> (1)
0

>  <i_epik_Tot_abs_Q> (1)
0

>  <s_lp_Force_Field> (1)
S-OPLS

>  <r_lp_Energy> (1)
45.9201

>  <b_lp_Chiralities_Consistent> (1)
1

$$$$
