9143_Acephenanthrylene
                    3D
 Schrodinger Suite 2021-3.
 26 29  0  0  1  0            999 V2000
    0.9230    3.4983   -1.4801 C   0  0  0  0  0  0
    1.9062    2.5771   -1.8795 C   0  0  0  0  0  0
    1.8196    1.2517   -1.4881 C   0  0  0  0  0  0
    0.7561    0.7904   -0.6869 C   0  0  0  0  0  0
   -0.2500    1.7311   -0.2775 C   0  0  0  0  0  0
   -0.1325    3.0770   -0.6940 C   0  0  0  0  0  0
   -1.3679    1.3306    0.5437 C   0  0  0  0  0  0
   -1.4800    0.0307    0.9453 C   0  0  0  0  0  0
   -2.4338   -0.7366    1.7542 C   0  0  0  0  0  0
   -2.0180   -2.0330    1.8147 C   0  0  0  0  0  0
   -0.7707   -2.1795    1.0481 C   0  0  0  0  0  0
   -0.4731   -0.8994    0.5322 C   0  0  0  0  0  0
    0.6308   -0.5949   -0.2557 C   0  0  0  0  0  0
    1.5016   -1.6794   -0.5420 C   0  0  0  0  0  0
    1.2280   -2.9479   -0.0449 C   0  0  0  0  0  0
    0.0925   -3.2222    0.7559 C   0  0  0  0  0  0
    0.9931    4.5372   -1.7884 H   0  0  0  0  0  0
    2.7370    2.9055   -2.4972 H   0  0  0  0  0  0
    2.5875    0.5534   -1.8054 H   0  0  0  0  0  0
   -0.8956    3.7854   -0.3824 H   0  0  0  0  0  0
   -2.0999    2.0844    0.8242 H   0  0  0  0  0  0
   -3.3201   -0.3258    2.2213 H   0  0  0  0  0  0
   -2.5178   -2.8376    2.3407 H   0  0  0  0  0  0
    2.3881   -1.5316   -1.1505 H   0  0  0  0  0  0
    1.9104   -3.7599   -0.2790 H   0  0  0  0  0  0
   -0.0822   -4.2294    1.1233 H   0  0  0  0  0  0
  1  6  1  0  0  0
  1  2  2  0  0  0
  1 17  1  0  0  0
  2  3  1  0  0  0
  2 18  1  0  0  0
  3  4  2  0  0  0
  3 19  1  0  0  0
  4 13  1  0  0  0
  4  5  1  0  0  0
  5  6  2  0  0  0
  5  7  1  0  0  0
  6 20  1  0  0  0
  7  8  2  0  0  0
  7 21  1  0  0  0
  8 12  1  0  0  0
  8  9  1  0  0  0
  9 10  2  0  0  0
  9 22  1  0  0  0
 10 11  1  0  0  0
 10 23  1  0  0  0
 11 16  1  0  0  0
 11 12  2  0  0  0
 12 13  1  0  0  0
 13 14  2  0  0  0
 14 15  1  0  0  0
 14 24  1  0  0  0
 15 16  2  0  0  0
 15 25  1  0  0  0
 16 26  1  0  0  0
M  END
>  <i_m_Spin_multiplicity> (1)
1

>  <s_j_Task> (1)
Single Point

>  <s_j_QM_Method> (1)
DFT(b3lyp-d3)

>  <s_j_QM_Basis> (1)
cc-pvtz(-f)

>  <i_j_Number_of_canonical_orbitals> (1)
443

>  <i_j_Geometry_convergence_category> (1)
0

>  <r_j_Gas_Phase_Energy> (1)
-615.934753187938

>  <r_j_Final_Energy> (1)
-615.934753187938

>  <r_j_HOMO> (1)
-0.221773363353327

>  <r_j_LUMO> (1)
-0.081990686528512

>  <r_j_Polarizability> (1)
189.173499410269

>  <r_j_QM_Dipole_(debye)> (1)
0.409170610422877

>  <r_j_QM_Dipole_X_(debye)> (1)
0.135357168439772

>  <r_j_QM_Dipole_Y_(debye)> (1)
0.344650022862905

>  <r_j_QM_Dipole_Z_(debye)> (1)
-0.174113144611186

>  <r_j_Lowest_Frequency_(cm-1)> (1)
114.732609261325

>  <r_j_Highest_Frequency_(cm-1)> (1)
3183.1336070916

>  <r_j_2nd_Lowest_Frequency_(cm-1)> (1)
124.712306636789

>  <i_j_Num_Negative_Frequencies> (1)
0

>  <r_j_Zero_Point_Energy_(kcal/mol)> (1)
128.771748169969

>  <r_j_Entropy_(cal/mol/K)_298.15K_1.00E+00atm> (1)
97.9628141657118

>  <r_j_Enthalpy_(kcal/mol)_298.15K_1.00E+00atm> (1)
6.93854509027721

>  <r_j_Free_Energy_(kcal/mol)_298.15K_1.00E+00atm> (1)
-22.2690679532298

>  <r_j_Internal_Energy_(kcal/mol)_298.15K_1.00E+00atm> (1)
6.34605950144994

>  <r_j_Heat_Capacity_(cal/mol/K)_298.15K_1.00E+00atm> (1)
44.5909271909356

>  <r_j_ln(Q)_298.15K_1.00E+00atm> (1)
37.5858390029497

>  <r_j_Total_Internal_Energy_(au)_298.15K_1.00E+00atm> (1)
-615.719429253987

>  <r_j_Total_Enthalpy_(au)_298.15K_1.00E+00atm> (1)
-615.718485068095

>  <r_j_Total_Free_Energy_(au)_298.15K_1.00E+00atm> (1)
-615.765030362533

>  <r_lp_tautomer_probability> (1)
1

>  <r_epik_Ionization_Penalty> (1)
  0.0000

>  <r_epik_Ionization_Penalty_Charging> (1)
  0.0000

>  <r_epik_Ionization_Penalty_Neutral> (1)
  0.0000

>  <r_epik_State_Penalty> (1)
  0.0000

>  <r_epik_Charging_Adjusted_Penalty> (1)
0

>  <i_epik_Tot_Q> (1)
0

>  <i_epik_Tot_abs_Q> (1)
0

>  <s_lp_Force_Field> (1)
S-OPLS

>  <r_lp_Energy> (1)
33.3406

>  <b_lp_Chiralities_Consistent> (1)
1

$$$$
