9144_Benzo[ghi]fluoranthene
                    3D
 Schrodinger Suite 2021-3.
 28 32  0  0  1  0            999 V2000
   -2.5628    1.2706   -2.2832 C   0  0  0  0  0  0
   -1.5869    0.6427   -3.0513 C   0  0  0  0  0  0
   -0.4635    0.0543   -2.4075 C   0  0  0  0  0  0
   -0.4680    0.1783   -1.0222 C   0  0  0  0  0  0
   -1.4390    0.8082   -0.1952 C   0  0  0  0  0  0
   -2.5153    1.3681   -0.8600 C   0  0  0  0  0  0
   -0.9355    0.6424    1.2132 C   0  0  0  0  0  0
   -1.3145    0.9728    2.5020 C   0  0  0  0  0  0
   -0.4675    0.5824    3.5827 C   0  0  0  0  0  0
    0.7259   -0.1158    3.4216 C   0  0  0  0  0  0
    1.1515   -0.4749    2.1128 C   0  0  0  0  0  0
    0.2899   -0.0703    1.0984 C   0  0  0  0  0  0
    0.5660   -0.3465   -0.2429 C   0  0  0  0  0  0
    1.6719   -1.0220   -0.7172 C   0  0  0  0  0  0
    1.6943   -1.1614   -2.1553 C   0  0  0  0  0  0
    0.6801   -0.6496   -2.9500 C   0  0  0  0  0  0
    2.5792   -1.4505    0.3225 C   0  0  0  0  0  0
    2.3274   -1.1885    1.6603 C   0  0  0  0  0  0
   -3.4135    1.7145   -2.7930 H   0  0  0  0  0  0
   -1.6912    0.6078   -4.1325 H   0  0  0  0  0  0
   -3.3203    1.8764   -0.3365 H   0  0  0  0  0  0
   -2.2303    1.5170    2.7156 H   0  0  0  0  0  0
   -0.7778    0.8488    4.5893 H   0  0  0  0  0  0
    1.3187   -0.3788    4.2933 H   0  0  0  0  0  0
    2.5232   -1.6788   -2.6314 H   0  0  0  0  0  0
    0.7457   -0.7821   -4.0271 H   0  0  0  0  0  0
    3.4830   -1.9919    0.0562 H   0  0  0  0  0  0
    3.0433   -1.5333    2.4023 H   0  0  0  0  0  0
  1  6  1  0  0  0
  1  2  2  0  0  0
  1 19  1  0  0  0
  2  3  1  0  0  0
  2 20  1  0  0  0
  3 16  1  0  0  0
  3  4  2  0  0  0
  4 13  1  0  0  0
  4  5  1  0  0  0
  5  6  2  0  0  0
  5  7  1  0  0  0
  6 21  1  0  0  0
  7 12  1  0  0  0
  7  8  2  0  0  0
  8  9  1  0  0  0
  8 22  1  0  0  0
  9 10  2  0  0  0
  9 23  1  0  0  0
 10 11  1  0  0  0
 10 24  1  0  0  0
 11 18  1  0  0  0
 11 12  2  0  0  0
 12 13  1  0  0  0
 13 14  2  0  0  0
 14 15  1  0  0  0
 14 17  1  0  0  0
 15 16  2  0  0  0
 15 25  1  0  0  0
 16 26  1  0  0  0
 17 18  2  0  0  0
 17 27  1  0  0  0
 18 28  1  0  0  0
M  END
>  <i_m_Spin_multiplicity> (1)
1

>  <s_j_Task> (1)
Single Point

>  <s_j_QM_Method> (1)
DFT(b3lyp-d3)

>  <s_j_QM_Basis> (1)
cc-pvtz(-f)

>  <i_j_Number_of_canonical_orbitals> (1)
487

>  <i_j_Geometry_convergence_category> (1)
0

>  <r_j_Gas_Phase_Energy> (1)
-692.176815438821

>  <r_j_Final_Energy> (1)
-692.176815438821

>  <r_j_HOMO> (1)
-0.225169259010689

>  <r_j_LUMO> (1)
-0.0794788392704868

>  <r_j_Polarizability> (1)
208.021455552775

>  <r_j_QM_Dipole_(debye)> (1)
0.134173572420123

>  <r_j_QM_Dipole_X_(debye)> (1)
-0.106991339138779

>  <r_j_QM_Dipole_Y_(debye)> (1)
0.0668962646813922

>  <r_j_QM_Dipole_Z_(debye)> (1)
0.0456102034302171

>  <r_j_Lowest_Frequency_(cm-1)> (1)
95.1033921408416

>  <r_j_Highest_Frequency_(cm-1)> (1)
3143.28629127871

>  <r_j_2nd_Lowest_Frequency_(cm-1)> (1)
133.295421136758

>  <i_j_Num_Negative_Frequencies> (1)
0

>  <r_j_Zero_Point_Energy_(kcal/mol)> (1)
136.788674549402

>  <r_j_Entropy_(cal/mol/K)_298.15K_1.00E+00atm> (1)
100.891692187161

>  <r_j_Enthalpy_(kcal/mol)_298.15K_1.00E+00atm> (1)
7.35233493451131

>  <r_j_Free_Energy_(kcal/mol)_298.15K_1.00E+00atm> (1)
-22.7285230910907

>  <r_j_Internal_Energy_(kcal/mol)_298.15K_1.00E+00atm> (1)
6.75984934568403

>  <r_j_Heat_Capacity_(cal/mol/K)_298.15K_1.00E+00atm> (1)
48.4821826976113

>  <r_j_ln(Q)_298.15K_1.00E+00atm> (1)
38.3613095739222

>  <r_j_Total_Internal_Energy_(au)_298.15K_1.00E+00atm> (1)
-691.948056303289

>  <r_j_Total_Enthalpy_(au)_298.15K_1.00E+00atm> (1)
-691.947112117397

>  <r_j_Total_Free_Energy_(au)_298.15K_1.00E+00atm> (1)
-691.995049016303

>  <r_lp_tautomer_probability> (1)
1

>  <r_epik_Ionization_Penalty> (1)
  0.0000

>  <r_epik_Ionization_Penalty_Charging> (1)
  0.0000

>  <r_epik_Ionization_Penalty_Neutral> (1)
  0.0000

>  <r_epik_State_Penalty> (1)
  0.0000

>  <r_epik_Charging_Adjusted_Penalty> (1)
0

>  <i_epik_Tot_Q> (1)
0

>  <i_epik_Tot_abs_Q> (1)
0

>  <s_lp_Force_Field> (1)
S-OPLS

>  <r_lp_Energy> (1)
53.5934

>  <b_lp_Chiralities_Consistent> (1)
1

$$$$
