91496_Limonene oxide
                    3D
 Schrodinger Suite 2021-3.
 27 28  0  0  1  0            999 V2000
   -0.7166   -1.3834   -0.4593 C   0  0  0  0  0  0
   -0.1403   -0.0675    0.0095 C   0  0  0  0  0  0
   -0.9344    0.9751    0.2783 C   0  0  0  0  0  0
    1.3792   -0.0364    0.1380 C   0  0  0  0  0  0
    2.0126    1.4133   -0.0491 C   0  0  0  0  0  0
    2.2970    2.3184    1.2182 C   0  0  0  0  0  0
    2.8498    1.2853    2.1849 C   0  0  0  0  0  0
    1.7672    0.3355    2.4257 C   0  0  0  0  0  0
    1.8181   -0.8272    1.4713 C   0  0  0  0  0  0
    2.4789    0.9122    3.5462 O   0  0  0  0  0  0
    4.2746    0.8373    1.9070 C   0  0  0  0  0  0
   -0.3760   -1.6102   -1.4781 H   0  0  0  0  0  0
   -1.8097   -1.3721   -0.4606 H   0  0  0  0  0  0
   -0.3883   -2.2192    0.1701 H   0  0  0  0  0  0
   -2.0139    0.9008    0.1838 H   0  0  0  0  0  0
   -0.5466    1.9377    0.5940 H   0  0  0  0  0  0
    1.7667   -0.6293   -0.7005 H   0  0  0  0  0  0
    2.9708    1.2728   -0.5581 H   0  0  0  0  0  0
    1.3815    1.9586   -0.7564 H   0  0  0  0  0  0
    2.9930    3.1208    0.9435 H   0  0  0  0  0  0
    1.3828    2.7798    1.6015 H   0  0  0  0  0  0
    0.7649    0.7664    2.4045 H   0  0  0  0  0  0
    1.1164   -1.6415    1.6748 H   0  0  0  0  0  0
    2.8142   -1.2581    1.3499 H   0  0  0  0  0  0
    4.4775    0.6805    0.8437 H   0  0  0  0  0  0
    4.5043   -0.0819    2.4492 H   0  0  0  0  0  0
    4.9601    1.6154    2.2619 H   0  0  0  0  0  0
  1  2  1  0  0  0
  1 12  1  0  0  0
  1 13  1  0  0  0
  1 14  1  0  0  0
  2  3  2  0  0  0
  2  4  1  0  0  0
  3 15  1  0  0  0
  3 16  1  0  0  0
  4  9  1  0  0  0
  4  5  1  0  0  0
  4 17  1  0  0  0
  5  6  1  0  0  0
  5 18  1  0  0  0
  5 19  1  0  0  0
  6  7  1  0  0  0
  6 20  1  0  0  0
  6 21  1  0  0  0
  7 10  1  0  0  0
  7  8  1  0  0  0
  7 11  1  0  0  0
  8  9  1  0  0  0
  8 10  1  0  0  0
  8 22  1  0  0  0
  9 23  1  0  0  0
  9 24  1  0  0  0
 11 25  1  0  0  0
 11 26  1  0  0  0
 11 27  1  0  0  0
M  END
>  <i_m_Spin_multiplicity> (1)
1

>  <s_j_Task> (1)
Single Point

>  <s_j_QM_Method> (1)
DFT(b3lyp-d3)

>  <s_j_QM_Basis> (1)
cc-pvtz(-f)

>  <i_j_Number_of_canonical_orbitals> (1)
392

>  <i_j_Geometry_convergence_category> (1)
1

>  <r_j_Gas_Phase_Energy> (1)
-465.985650837258

>  <r_j_Final_Energy> (1)
-465.985650837258

>  <r_j_HOMO> (1)
-0.251104222601596

>  <r_j_LUMO> (1)
-0.000841623090434888

>  <r_j_Polarizability> (1)
114.806806225991

>  <r_j_QM_Dipole_(debye)> (1)
2.71145328215946

>  <r_j_QM_Dipole_X_(debye)> (1)
-0.0542396558928775

>  <r_j_QM_Dipole_Y_(debye)> (1)
-0.579715652730529

>  <r_j_QM_Dipole_Z_(debye)> (1)
-2.64820065762419

>  <r_j_Lowest_Frequency_(cm-1)> (1)
97.3816409943619

>  <r_j_Highest_Frequency_(cm-1)> (1)
3178.92966539255

>  <r_j_2nd_Lowest_Frequency_(cm-1)> (1)
131.109590798181

>  <i_j_Num_Negative_Frequencies> (1)
0

>  <r_j_Zero_Point_Energy_(kcal/mol)> (1)
149.962411404259

>  <r_j_Entropy_(cal/mol/K)_298.15K_1.00E+00atm> (1)
97.2118822254685

>  <r_j_Enthalpy_(kcal/mol)_298.15K_1.00E+00atm> (1)
7.1610646664801

>  <r_j_Free_Energy_(kcal/mol)_298.15K_1.00E+00atm> (1)
-21.8226580190433

>  <r_j_Internal_Energy_(kcal/mol)_298.15K_1.00E+00atm> (1)
6.56857907765283

>  <r_j_Heat_Capacity_(cal/mol/K)_298.15K_1.00E+00atm> (1)
43.4310573037107

>  <r_j_ln(Q)_298.15K_1.00E+00atm> (1)
36.8323861888989

>  <r_j_Total_Internal_Energy_(au)_298.15K_1.00E+00atm> (1)
-465.736202824176

>  <r_j_Total_Enthalpy_(au)_298.15K_1.00E+00atm> (1)
-465.735258638283

>  <r_j_Total_Free_Energy_(au)_298.15K_1.00E+00atm> (1)
-465.781447140722

>  <r_lp_tautomer_probability> (1)
1

>  <r_epik_Ionization_Penalty> (1)
  0.0000

>  <r_epik_Ionization_Penalty_Charging> (1)
  0.0000

>  <r_epik_Ionization_Penalty_Neutral> (1)
  0.0000

>  <r_epik_State_Penalty> (1)
  0.0000

>  <r_epik_Charging_Adjusted_Penalty> (1)
0

>  <i_epik_Tot_Q> (1)
0

>  <i_epik_Tot_abs_Q> (1)
0

>  <s_lp_Force_Field> (1)
S-OPLS

>  <r_lp_Energy> (1)
45.632

>  <b_lp_Chiralities_Consistent> (1)
1

$$$$
