91517_1,2,4-trimethylcyclohexane
                    3D
 Schrodinger Suite 2021-3.
 27 27  0  0  1  0            999 V2000
   -0.0523   -0.0812   -0.0043 C   0  0  0  0  0  0
    1.4775   -0.0045   -0.0025 C   0  0  1  0  0  0
    2.0142    0.6785   -1.2724 C   0  0  0  0  0  0
    3.5463    0.7891   -1.2565 C   0  0  0  0  0  0
    4.0774    1.5259   -0.0078 C   0  0  2  0  0  0
    3.5423    0.8286    1.2712 C   0  0  2  0  0  0
    2.0067    0.7114    1.2526 C   0  0  0  0  0  0
    4.0389    1.4819    2.5664 C   0  0  0  0  0  0
    3.7755    3.0330   -0.0643 C   0  0  0  0  0  0
   -0.4912    0.9240   -0.0193 H   0  0  0  0  0  0
   -0.4274   -0.5942    0.8883 H   0  0  0  0  0  0
   -0.4239   -0.6192   -0.8835 H   0  0  0  0  0  0
    1.8734   -1.0324    0.0122 H   0  0  0  0  0  0
    1.6882    0.1229   -2.1608 H   0  0  0  0  0  0
    1.5658    1.6783   -1.3561 H   0  0  0  0  0  0
    3.9714   -0.2242   -1.2760 H   0  0  0  0  0  0
    3.8999    1.2918   -2.1654 H   0  0  0  0  0  0
    5.1719    1.4200    0.0002 H   0  0  0  0  0  0
    3.9408   -0.1977    1.2468 H   0  0  0  0  0  0
    1.5587    1.7141    1.3103 H   0  0  0  0  0  0
    1.6703    0.1789    2.1523 H   0  0  0  0  0  0
    3.5969    2.4735    2.7115 H   0  0  0  0  0  0
    5.1287    1.5992    2.5619 H   0  0  0  0  0  0
    3.7701    0.8737    3.4369 H   0  0  0  0  0  0
    2.7033    3.2450   -0.0129 H   0  0  0  0  0  0
    4.1488    3.4608   -1.0011 H   0  0  0  0  0  0
    4.2568    3.5708    0.7575 H   0  0  0  0  0  0
  1  2  1  0  0  0
  1 10  1  0  0  0
  1 11  1  0  0  0
  1 12  1  0  0  0
  2  7  1  0  0  0
  2  3  1  0  0  0
  2 13  1  0  0  0
  3  4  1  0  0  0
  3 14  1  0  0  0
  3 15  1  0  0  0
  4  5  1  0  0  0
  4 16  1  0  0  0
  4 17  1  0  0  0
  5  6  1  0  0  0
  5  9  1  0  0  0
  5 18  1  0  0  0
  6  7  1  0  0  0
  6  8  1  0  0  0
  6 19  1  0  0  0
  7 20  1  0  0  0
  7 21  1  0  0  0
  8 22  1  0  0  0
  8 23  1  0  0  0
  8 24  1  0  0  0
  9 25  1  0  0  0
  9 26  1  0  0  0
  9 27  1  0  0  0
M  END
> <i_m_Spin_multiplicity>
1

> <s_j_Task>
Single Point

> <s_j_QM_Method>
DFT(b3lyp-d3)

> <s_j_QM_Basis>
cc-pvtz(-f)

> <i_j_Number_of_canonical_orbitals>
365

> <i_j_Geometry_convergence_category>
3

> <r_j_Gas_Phase_Energy>
-353.96357342691

> <r_j_Final_Energy>
-353.96357342691

> <r_j_HOMO>
-0.286238979394694

> <r_j_LUMO>
0.0278185449631253

> <r_j_Polarizability>
104.903300099282

> <r_j_QM_Dipole_(debye)>
0.205634548523548

> <r_j_QM_Dipole_X_(debye)>
0.139141376721945

> <r_j_QM_Dipole_Y_(debye)>
-0.145246816625121

> <r_j_QM_Dipole_Z_(debye)>
-0.0427622156894821

> <r_j_Lowest_Frequency_(cm-1)>
126.419342780629

> <r_j_Highest_Frequency_(cm-1)>
3060.7934213586

> <r_j_2nd_Lowest_Frequency_(cm-1)>
185.081065864973

> <i_j_Num_Negative_Frequencies>
0

> <r_j_Zero_Point_Energy_(kcal/mol)>
159.236837921175

> <r_j_Entropy_(cal/mol/K)_298.15K_1.00E+00atm>
91.3247106878413

> <r_j_Enthalpy_(kcal/mol)_298.15K_1.00E+00atm>
6.47094730854123

> <r_j_Free_Energy_(kcal/mol)_298.15K_1.00E+00atm>
-20.7575151830387

> <r_j_Internal_Energy_(kcal/mol)_298.15K_1.00E+00atm>
5.87846171971396

> <r_j_Heat_Capacity_(cal/mol/K)_298.15K_1.00E+00atm>
38.6721012547326

> <r_j_ln(Q)_298.15K_1.00E+00atm>
35.0346330349143

> <r_j_Total_Internal_Energy_(au)_298.15K_1.00E+00atm>
-353.700445446322

> <r_j_Total_Enthalpy_(au)_298.15K_1.00E+00atm>
-353.699501260429

> <r_j_Total_Free_Energy_(au)_298.15K_1.00E+00atm>
-353.742892577682

> <r_lp_tautomer_probability>
1

> <r_epik_Ionization_Penalty>
  0.0000

> <r_epik_Ionization_Penalty_Charging>
  0.0000

> <r_epik_Ionization_Penalty_Neutral>
  0.0000

> <r_epik_State_Penalty>
  0.0000

> <r_epik_Charging_Adjusted_Penalty>
0

> <i_epik_Tot_Q>
0

> <i_epik_Tot_abs_Q>
0

> <s_lp_Force_Field>
S-OPLS

> <r_lp_Energy>
11.9683

> <b_lp_Chiralities_Consistent>
1

$$$$
