9158_Benzo[k]fluoranthene
                    3D
 Schrodinger Suite 2021-3.
 32 36  0  0  1  0            999 V2000
    0.6401   -3.8031   -3.3309 C   0  0  0  0  0  0
    0.1436   -4.5692   -2.2514 C   0  0  0  0  0  0
   -0.1924   -3.9566   -1.0643 C   0  0  0  0  0  0
   -0.0498   -2.5556   -0.8982 C   0  0  0  0  0  0
   -0.3930   -1.9087    0.3236 C   0  0  0  0  0  0
   -0.2399   -0.5513    0.4450 C   0  0  0  0  0  0
   -0.5065    0.3674    1.5649 C   0  0  0  0  0  0
   -0.9857    0.2296    2.8521 C   0  0  0  0  0  0
   -1.1058    1.3915    3.6627 C   0  0  0  0  0  0
   -0.7607    2.6536    3.2099 C   0  0  0  0  0  0
   -0.2638    2.8277    1.8875 C   0  0  0  0  0  0
   -0.1558    1.6632    1.1096 C   0  0  0  0  0  0
    0.3174    1.6400   -0.2264 C   0  0  0  0  0  0
    0.6985    2.8312   -0.8104 C   0  0  0  0  0  0
    0.6000    4.0265   -0.0467 C   0  0  0  0  0  0
    0.1369    4.0399    1.2582 C   0  0  0  0  0  0
    0.2678    0.2331   -0.6593 C   0  0  0  0  0  0
    0.6042   -0.3678   -1.8453 C   0  0  0  0  0  0
    0.4546   -1.7764   -1.9951 C   0  0  0  0  0  0
    0.7907   -2.4396   -3.2027 C   0  0  0  0  0  0
    0.9029   -4.2941   -4.2633 H   0  0  0  0  0  0
    0.0278   -5.6435   -2.3610 H   0  0  0  0  0  0
   -0.5744   -4.5432   -0.2324 H   0  0  0  0  0  0
   -0.7741   -2.5051    1.1490 H   0  0  0  0  0  0
   -1.2695   -0.7392    3.2534 H   0  0  0  0  0  0
   -1.4832    1.2802    4.6754 H   0  0  0  0  0  0
   -0.8683    3.5149    3.8631 H   0  0  0  0  0  0
    1.0682    2.8719   -1.8310 H   0  0  0  0  0  0
    0.9007    4.9628   -0.5083 H   0  0  0  0  0  0
    0.0781    4.9764    1.8055 H   0  0  0  0  0  0
    0.9862    0.2152   -2.6797 H   0  0  0  0  0  0
    1.1724   -1.8493   -4.0320 H   0  0  0  0  0  0
  1 20  1  0  0  0
  1  2  2  0  0  0
  1 21  1  0  0  0
  2  3  1  0  0  0
  2 22  1  0  0  0
  3  4  2  0  0  0
  3 23  1  0  0  0
  4 19  1  0  0  0
  4  5  1  0  0  0
  5  6  2  0  0  0
  5 24  1  0  0  0
  6 17  1  0  0  0
  6  7  1  0  0  0
  7 12  1  0  0  0
  7  8  2  0  0  0
  8  9  1  0  0  0
  8 25  1  0  0  0
  9 10  2  0  0  0
  9 26  1  0  0  0
 10 11  1  0  0  0
 10 27  1  0  0  0
 11 16  1  0  0  0
 11 12  2  0  0  0
 12 13  1  0  0  0
 13 14  2  0  0  0
 13 17  1  0  0  0
 14 15  1  0  0  0
 14 28  1  0  0  0
 15 16  2  0  0  0
 15 29  1  0  0  0
 16 30  1  0  0  0
 17 18  2  0  0  0
 18 19  1  0  0  0
 18 31  1  0  0  0
 19 20  2  0  0  0
 20 32  1  0  0  0
M  END
>  <i_m_Spin_multiplicity> (1)
1

>  <s_j_Task> (1)
Single Point

>  <s_j_QM_Method> (1)
DFT(b3lyp-d3)

>  <s_j_QM_Basis> (1)
cc-pvtz(-f)

>  <i_j_Number_of_canonical_orbitals> (1)
547

>  <i_j_Geometry_convergence_category> (1)
0

>  <r_j_Gas_Phase_Energy> (1)
-769.640289882154

>  <r_j_Final_Energy> (1)
-769.640289882154

>  <r_j_HOMO> (1)
-0.207610591122301

>  <r_j_LUMO> (1)
-0.0737658241352663

>  <r_j_Polarizability> (1)
255.410904130837

>  <r_j_QM_Dipole_(debye)> (1)
0.308649323710413

>  <r_j_QM_Dipole_X_(debye)> (1)
-0.0229507114595926

>  <r_j_QM_Dipole_Y_(debye)> (1)
0.254936409836377

>  <r_j_QM_Dipole_Z_(debye)> (1)
0.172467668883569

>  <r_j_Lowest_Frequency_(cm-1)> (1)
78.1487550122033

>  <r_j_Highest_Frequency_(cm-1)> (1)
3146.57430617404

>  <r_j_2nd_Lowest_Frequency_(cm-1)> (1)
102.879457457687

>  <i_j_Num_Negative_Frequencies> (1)
0

>  <r_j_Zero_Point_Energy_(kcal/mol)> (1)
158.112156585723

>  <r_j_Entropy_(cal/mol/K)_298.15K_1.00E+00atm> (1)
109.683965491131

>  <r_j_Enthalpy_(kcal/mol)_298.15K_1.00E+00atm> (1)
8.53544896025046

>  <r_j_Free_Energy_(kcal/mol)_298.15K_1.00E+00atm> (1)
-24.1668253509303

>  <r_j_Internal_Energy_(kcal/mol)_298.15K_1.00E+00atm> (1)
7.94296337142319

>  <r_j_Heat_Capacity_(cal/mol/K)_298.15K_1.00E+00atm> (1)
55.9917901090909

>  <r_j_ln(Q)_298.15K_1.00E+00atm> (1)
40.7888829815498

>  <r_j_Total_Internal_Energy_(au)_298.15K_1.00E+00atm> (1)
-769.375664202549

>  <r_j_Total_Enthalpy_(au)_298.15K_1.00E+00atm> (1)
-769.374720016657

>  <r_j_Total_Free_Energy_(au)_298.15K_1.00E+00atm> (1)
-769.426834408351

>  <r_lp_tautomer_probability> (1)
1

>  <r_epik_Ionization_Penalty> (1)
  0.0000

>  <r_epik_Ionization_Penalty_Charging> (1)
  0.0000

>  <r_epik_Ionization_Penalty_Neutral> (1)
  0.0000

>  <r_epik_State_Penalty> (1)
  0.0000

>  <r_epik_Charging_Adjusted_Penalty> (1)
0

>  <i_epik_Tot_Q> (1)
0

>  <i_epik_Tot_abs_Q> (1)
0

>  <s_lp_Force_Field> (1)
S-OPLS

>  <r_lp_Energy> (1)
38.5616

>  <b_lp_Chiralities_Consistent> (1)
1

$$$$
