9161_Acenaphthylene
                    3D
 Schrodinger Suite 2021-3.
 20 22  0  0  1  0            999 V2000
    6.2920   -2.0243    0.8454 C   0  0  0  0  0  0
    6.1588   -0.6616    0.6408 C   0  0  0  0  0  0
    7.2923    0.1148    0.2594 C   0  0  0  0  0  0
    8.4921   -0.5852    0.1171 C   0  0  0  0  0  0
    8.6476   -1.9774    0.3218 C   0  0  0  0  0  0
    7.5343   -2.7057    0.6904 C   0  0  0  0  0  0
   10.0675   -2.2688    0.0611 C   0  0  0  0  0  0
   10.7031   -1.1109   -0.2764 C   0  0  0  0  0  0
    9.7297   -0.0059   -0.2531 C   0  0  0  0  0  0
    9.7621    1.3531   -0.4934 C   0  0  0  0  0  0
    8.5559    2.1003   -0.3579 C   0  0  0  0  0  0
    7.3542    1.5164    0.0052 C   0  0  0  0  0  0
    5.4187   -2.6015    1.1357 H   0  0  0  0  0  0
    5.1919   -0.1829    0.7703 H   0  0  0  0  0  0
    7.5833   -3.7774    0.8634 H   0  0  0  0  0  0
   10.5227   -3.2494    0.1297 H   0  0  0  0  0  0
   11.7527   -1.0083   -0.5236 H   0  0  0  0  0  0
   10.6784    1.8616   -0.7812 H   0  0  0  0  0  0
    8.5860    3.1694   -0.5481 H   0  0  0  0  0  0
    6.4583    2.1245    0.0967 H   0  0  0  0  0  0
  1  6  1  0  0  0
  1  2  2  0  0  0
  1 13  1  0  0  0
  2  3  1  0  0  0
  2 14  1  0  0  0
  3 12  1  0  0  0
  3  4  2  0  0  0
  4  9  1  0  0  0
  4  5  1  0  0  0
  5  6  2  0  0  0
  5  7  1  0  0  0
  6 15  1  0  0  0
  7  8  2  0  0  0
  7 16  1  0  0  0
  8  9  1  0  0  0
  8 17  1  0  0  0
  9 10  2  0  0  0
 10 11  1  0  0  0
 10 18  1  0  0  0
 11 12  2  0  0  0
 11 19  1  0  0  0
 12 20  1  0  0  0
M  END
>  <i_m_Spin_multiplicity> (1)
1

>  <s_j_Task> (1)
Single Point

>  <s_j_QM_Method> (1)
DFT(b3lyp-d3)

>  <s_j_QM_Basis> (1)
cc-pvtz(-f)

>  <i_j_Number_of_canonical_orbitals> (1)
340

>  <i_j_Geometry_convergence_category> (1)
0

>  <r_j_Gas_Phase_Energy> (1)
-462.237025717568

>  <r_j_Final_Energy> (1)
-462.237025717568

>  <r_j_HOMO> (1)
-0.227838835715327

>  <r_j_LUMO> (1)
-0.0850051536427314

>  <r_j_Polarizability> (1)
133.034385926723

>  <r_j_QM_Dipole_(debye)> (1)
0.309660438045445

>  <r_j_QM_Dipole_X_(debye)> (1)
-0.266200031358598

>  <r_j_QM_Dipole_Y_(debye)> (1)
0.1550373007739

>  <r_j_QM_Dipole_Z_(debye)> (1)
0.0314732515625822

>  <r_j_Lowest_Frequency_(cm-1)> (1)
178.911658641756

>  <r_j_Highest_Frequency_(cm-1)> (1)
3181.92017382192

>  <r_j_2nd_Lowest_Frequency_(cm-1)> (1)
226.020606834292

>  <i_j_Num_Negative_Frequencies> (1)
0

>  <r_j_Zero_Point_Energy_(kcal/mol)> (1)
99.3648787449603

>  <r_j_Entropy_(cal/mol/K)_298.15K_1.00E+00atm> (1)
85.686179975572

>  <r_j_Enthalpy_(kcal/mol)_298.15K_1.00E+00atm> (1)
5.32528002083543

>  <r_j_Free_Energy_(kcal/mol)_298.15K_1.00E+00atm> (1)
-20.2220545388814

>  <r_j_Internal_Energy_(kcal/mol)_298.15K_1.00E+00atm> (1)
4.73279443200816

>  <r_j_Heat_Capacity_(cal/mol/K)_298.15K_1.00E+00atm> (1)
33.0800737233804

>  <r_j_ln(Q)_298.15K_1.00E+00atm> (1)
34.1308800082505

>  <r_j_Total_Internal_Energy_(au)_298.15K_1.00E+00atm> (1)
-462.071135514864

>  <r_j_Total_Enthalpy_(au)_298.15K_1.00E+00atm> (1)
-462.070191328971

>  <r_j_Total_Free_Energy_(au)_298.15K_1.00E+00atm> (1)
-462.110903598317

>  <r_lp_tautomer_probability> (1)
1

>  <r_epik_Ionization_Penalty> (1)
  0.0000

>  <r_epik_Ionization_Penalty_Charging> (1)
  0.0000

>  <r_epik_Ionization_Penalty_Neutral> (1)
  0.0000

>  <r_epik_State_Penalty> (1)
  0.0000

>  <r_epik_Charging_Adjusted_Penalty> (1)
0

>  <i_epik_Tot_Q> (1)
0

>  <i_epik_Tot_abs_Q> (1)
0

>  <s_lp_Force_Field> (1)
S-OPLS

>  <r_lp_Energy> (1)
22.7154

>  <b_lp_Chiralities_Consistent> (1)
1

$$$$
