9162_Picene
                    3D
 Schrodinger Suite 2021-3.
 36 40  0  0  1  0            999 V2000
   -3.7882   -2.0088    3.8057 C   0  0  0  0  0  0
   -2.4949   -1.7796    4.3145 C   0  0  0  0  0  0
   -1.4940   -1.2960    3.4952 C   0  0  0  0  0  0
   -1.7314   -1.0158    2.1260 C   0  0  0  0  0  0
   -3.0432   -1.2510    1.6202 C   0  0  0  0  0  0
   -4.0529   -1.7470    2.4787 C   0  0  0  0  0  0
   -3.3150   -0.9792    0.2454 C   0  0  0  0  0  0
   -2.3499   -0.5019   -0.5880 C   0  0  0  0  0  0
   -1.0149   -0.2475   -0.1320 C   0  0  0  0  0  0
   -0.7074   -0.5063    1.2300 C   0  0  0  0  0  0
    0.6178   -0.2534    1.6799 C   0  0  0  0  0  0
    1.5844    0.2259    0.8396 C   0  0  0  0  0  0
    1.3186    0.4985   -0.5307 C   0  0  0  0  0  0
    0.0072    0.2598   -1.0210 C   0  0  0  0  0  0
   -0.2638    0.5341   -2.4024 C   0  0  0  0  0  0
    0.6978    1.0118   -3.2403 C   0  0  0  0  0  0
    2.0269    1.2640   -2.7835 C   0  0  0  0  0  0
    3.0196    1.7606   -3.6617 C   0  0  0  0  0  0
    4.3018    2.0032   -3.2177 C   0  0  0  0  0  0
    4.6294    1.7535   -1.8709 C   0  0  0  0  0  0
    3.6770    1.2689   -0.9967 C   0  0  0  0  0  0
    2.3494    1.0082   -1.4189 C   0  0  0  0  0  0
   -4.5696   -2.3892    4.4566 H   0  0  0  0  0  0
   -2.2821   -1.9847    5.3596 H   0  0  0  0  0  0
   -0.5117   -1.1320    3.9220 H   0  0  0  0  0  0
   -5.0454   -1.9184    2.0700 H   0  0  0  0  0  0
   -4.3181   -1.1618   -0.1309 H   0  0  0  0  0  0
   -2.6107   -0.3134   -1.6213 H   0  0  0  0  0  0
    0.8823   -0.4412    2.7133 H   0  0  0  0  0  0
    2.5751    0.3982    1.2421 H   0  0  0  0  0  0
   -1.2547    0.3612   -2.8022 H   0  0  0  0  0  0
    0.4624    1.2104   -4.2826 H   0  0  0  0  0  0
    2.7511    1.9481   -4.6981 H   0  0  0  0  0  0
    5.0564    2.3842   -3.8992 H   0  0  0  0  0  0
    5.6381    1.9430   -1.5156 H   0  0  0  0  0  0
    3.9660    1.0889    0.0317 H   0  0  0  0  0  0
  1  6  1  0  0  0
  1  2  2  0  0  0
  1 23  1  0  0  0
  2  3  1  0  0  0
  2 24  1  0  0  0
  3  4  2  0  0  0
  3 25  1  0  0  0
  4 10  1  0  0  0
  4  5  1  0  0  0
  5  6  2  0  0  0
  5  7  1  0  0  0
  6 26  1  0  0  0
  7  8  2  0  0  0
  7 27  1  0  0  0
  8  9  1  0  0  0
  8 28  1  0  0  0
  9 14  1  0  0  0
  9 10  2  0  0  0
 10 11  1  0  0  0
 11 12  2  0  0  0
 11 29  1  0  0  0
 12 13  1  0  0  0
 12 30  1  0  0  0
 13 22  1  0  0  0
 13 14  2  0  0  0
 14 15  1  0  0  0
 15 16  2  0  0  0
 15 31  1  0  0  0
 16 17  1  0  0  0
 16 32  1  0  0  0
 17 22  1  0  0  0
 17 18  2  0  0  0
 18 19  1  0  0  0
 18 33  1  0  0  0
 19 20  2  0  0  0
 19 34  1  0  0  0
 20 21  1  0  0  0
 20 35  1  0  0  0
 21 22  2  0  0  0
 21 36  1  0  0  0
M  END
>  <i_m_Spin_multiplicity> (1)
1

>  <s_j_Task> (1)
Single Point

>  <s_j_QM_Method> (1)
DFT(b3lyp-d3)

>  <s_j_QM_Basis> (1)
cc-pvtz(-f)

>  <i_j_Number_of_canonical_orbitals> (1)
610

>  <i_j_Geometry_convergence_category> (1)
3

>  <r_j_Gas_Phase_Energy> (1)
-847.100674412758

>  <r_j_Final_Energy> (1)
-847.100674412758

>  <r_j_HOMO> (1)
-0.209235272511262

>  <r_j_LUMO> (1)
-0.0622351221370573

>  <r_j_Polarizability> (1)
282.396359681489

>  <r_j_QM_Dipole_(debye)> (1)
0.0493133426864339

>  <r_j_QM_Dipole_X_(debye)> (1)
0.0336830872732828

>  <r_j_QM_Dipole_Y_(debye)> (1)
0.000443038134543991

>  <r_j_QM_Dipole_Z_(debye)> (1)
0.0360147069384358

>  <r_j_Lowest_Frequency_(cm-1)> (1)
59.1578356348032

>  <r_j_Highest_Frequency_(cm-1)> (1)
3180.591243827

>  <r_j_2nd_Lowest_Frequency_(cm-1)> (1)
74.5310416058791

>  <i_j_Num_Negative_Frequencies> (1)
0

>  <r_j_Zero_Point_Energy_(kcal/mol)> (1)
180.244725769459

>  <r_j_Entropy_(cal/mol/K)_298.15K_1.00E+00atm> (1)
117.083745829735

>  <r_j_Enthalpy_(kcal/mol)_298.15K_1.00E+00atm> (1)
9.59467614414469

>  <r_j_Free_Energy_(kcal/mol)_298.15K_1.00E+00atm> (1)
-25.3138426749908

>  <r_j_Internal_Energy_(kcal/mol)_298.15K_1.00E+00atm> (1)
9.00219055531742

>  <r_j_Heat_Capacity_(cal/mol/K)_298.15K_1.00E+00atm> (1)
63.1506668435377

>  <r_j_ln(Q)_298.15K_1.00E+00atm> (1)
42.7248242866046

>  <r_j_Total_Internal_Energy_(au)_298.15K_1.00E+00atm> (1)
-846.799090252881

>  <r_j_Total_Enthalpy_(au)_298.15K_1.00E+00atm> (1)
-846.798146066989

>  <r_j_Total_Free_Energy_(au)_298.15K_1.00E+00atm> (1)
-846.853776333126

>  <r_lp_tautomer_probability> (1)
1

>  <r_epik_Ionization_Penalty> (1)
  0.0000

>  <r_epik_Ionization_Penalty_Charging> (1)
  0.0000

>  <r_epik_Ionization_Penalty_Neutral> (1)
  0.0000

>  <r_epik_State_Penalty> (1)
  0.0000

>  <r_epik_Charging_Adjusted_Penalty> (1)
0

>  <i_epik_Tot_Q> (1)
0

>  <i_epik_Tot_abs_Q> (1)
0

>  <s_lp_Force_Field> (1)
S-OPLS

>  <r_lp_Energy> (1)
57.263

>  <b_lp_Chiralities_Consistent> (1)
1

$$$$
