9163_Benzo(b)chrysene
                    3D
 Schrodinger Suite 2021-3.
 36 40  0  0  1  0            999 V2000
    3.7657    3.2993   -2.9114 C   0  0  0  0  0  0
    3.7520    3.6661   -1.5502 C   0  0  0  0  0  0
    2.9268    3.0153   -0.6568 C   0  0  0  0  0  0
    2.0692    1.9623   -1.0704 C   0  0  0  0  0  0
    2.0906    1.5980   -2.4513 C   0  0  0  0  0  0
    2.9469    2.2820   -3.3487 C   0  0  0  0  0  0
    1.2438    0.5457   -2.9016 C   0  0  0  0  0  0
    0.4186   -0.1145   -2.0383 C   0  0  0  0  0  0
    0.3633    0.2154   -0.6498 C   0  0  0  0  0  0
    1.1889    1.2549   -0.1642 C   0  0  0  0  0  0
    1.1338    1.5882    1.2337 C   0  0  0  0  0  0
    0.3146    0.9345    2.0970 C   0  0  0  0  0  0
   -0.5412   -0.1260    1.6565 C   0  0  0  0  0  0
   -1.3793   -0.7921    2.5510 C   0  0  0  0  0  0
   -2.2245   -1.8321    2.1403 C   0  0  0  0  0  0
   -3.0883   -2.5245    3.0396 C   0  0  0  0  0  0
   -3.8990   -3.5361    2.5942 C   0  0  0  0  0  0
   -3.8922   -3.9135    1.2220 C   0  0  0  0  0  0
   -3.0747   -3.2700    0.3291 C   0  0  0  0  0  0
   -2.2163   -2.2123    0.7533 C   0  0  0  0  0  0
   -1.3687   -1.5359   -0.1407 C   0  0  0  0  0  0
   -0.5248   -0.4990    0.2644 C   0  0  0  0  0  0
    4.4184    3.8173   -3.6076 H   0  0  0  0  0  0
    4.3963    4.4677   -1.2010 H   0  0  0  0  0  0
    2.9447    3.3257    0.3812 H   0  0  0  0  0  0
    2.9452    1.9865   -4.3948 H   0  0  0  0  0  0
    1.2649    0.2732   -3.9535 H   0  0  0  0  0  0
   -0.2077   -0.9087   -2.4265 H   0  0  0  0  0  0
    1.7614    2.3831    1.6176 H   0  0  0  0  0  0
    0.2960    1.2098    3.1482 H   0  0  0  0  0  0
   -1.3757   -0.4946    3.5969 H   0  0  0  0  0  0
   -3.0910   -2.2336    4.0869 H   0  0  0  0  0  0
   -4.5527   -4.0563    3.2883 H   0  0  0  0  0  0
   -4.5408   -4.7171    0.8856 H   0  0  0  0  0  0
   -3.0685   -3.5572   -0.7193 H   0  0  0  0  0  0
   -1.3916   -1.8518   -1.1774 H   0  0  0  0  0  0
  1  6  1  0  0  0
  1  2  2  0  0  0
  1 23  1  0  0  0
  2  3  1  0  0  0
  2 24  1  0  0  0
  3  4  2  0  0  0
  3 25  1  0  0  0
  4 10  1  0  0  0
  4  5  1  0  0  0
  5  6  2  0  0  0
  5  7  1  0  0  0
  6 26  1  0  0  0
  7  8  2  0  0  0
  7 27  1  0  0  0
  8  9  1  0  0  0
  8 28  1  0  0  0
  9 22  1  0  0  0
  9 10  2  0  0  0
 10 11  1  0  0  0
 11 12  2  0  0  0
 11 29  1  0  0  0
 12 13  1  0  0  0
 12 30  1  0  0  0
 13 22  1  0  0  0
 13 14  2  0  0  0
 14 15  1  0  0  0
 14 31  1  0  0  0
 15 20  1  0  0  0
 15 16  2  0  0  0
 16 17  1  0  0  0
 16 32  1  0  0  0
 17 18  2  0  0  0
 17 33  1  0  0  0
 18 19  1  0  0  0
 18 34  1  0  0  0
 19 20  2  0  0  0
 19 35  1  0  0  0
 20 21  1  0  0  0
 21 22  2  0  0  0
 21 36  1  0  0  0
M  END
>  <i_m_Spin_multiplicity> (1)
1

>  <s_j_Task> (1)
Single Point

>  <s_j_QM_Method> (1)
DFT(b3lyp-d3)

>  <s_j_QM_Basis> (1)
cc-pvtz(-f)

>  <i_j_Number_of_canonical_orbitals> (1)
610

>  <i_j_Geometry_convergence_category> (1)
0

>  <r_j_Gas_Phase_Energy> (1)
-847.095697592004

>  <r_j_Final_Energy> (1)
-847.095697592004

>  <r_j_HOMO> (1)
-0.201873412070032

>  <r_j_LUMO> (1)
-0.0793580500156683

>  <r_j_Polarizability> (1)
292.042828342577

>  <r_j_QM_Dipole_(debye)> (1)
0.0225272932429196

>  <r_j_QM_Dipole_X_(debye)> (1)
0.00502706378626758

>  <r_j_QM_Dipole_Y_(debye)> (1)
-0.00129908832722451

>  <r_j_QM_Dipole_Z_(debye)> (1)
-0.0219207650427479

>  <r_j_Lowest_Frequency_(cm-1)> (1)
55.1143886538505

>  <r_j_Highest_Frequency_(cm-1)> (1)
3171.99458127408

>  <r_j_2nd_Lowest_Frequency_(cm-1)> (1)
87.3405909188318

>  <i_j_Num_Negative_Frequencies> (1)
0

>  <r_j_Zero_Point_Energy_(kcal/mol)> (1)
179.989436952646

>  <r_j_Entropy_(cal/mol/K)_298.15K_1.00E+00atm> (1)
117.151197009082

>  <r_j_Enthalpy_(kcal/mol)_298.15K_1.00E+00atm> (1)
9.6003305077399

>  <r_j_Free_Energy_(kcal/mol)_298.15K_1.00E+00atm> (1)
-25.3282988805178

>  <r_j_Internal_Energy_(kcal/mol)_298.15K_1.00E+00atm> (1)
9.00784491891263

>  <r_j_Heat_Capacity_(cal/mol/K)_298.15K_1.00E+00atm> (1)
63.2397315271619

>  <r_j_ln(Q)_298.15K_1.00E+00atm> (1)
42.7492235391765

>  <r_j_Total_Internal_Energy_(au)_298.15K_1.00E+00atm> (1)
-846.794511249953

>  <r_j_Total_Enthalpy_(au)_298.15K_1.00E+00atm> (1)
-846.793567064061

>  <r_j_Total_Free_Energy_(au)_298.15K_1.00E+00atm> (1)
-846.849229378429

>  <r_lp_tautomer_probability> (1)
1

>  <r_epik_Ionization_Penalty> (1)
  0.0000

>  <r_epik_Ionization_Penalty_Charging> (1)
  0.0000

>  <r_epik_Ionization_Penalty_Neutral> (1)
  0.0000

>  <r_epik_State_Penalty> (1)
  0.0000

>  <r_epik_Charging_Adjusted_Penalty> (1)
0

>  <i_epik_Tot_Q> (1)
0

>  <i_epik_Tot_abs_Q> (1)
0

>  <s_lp_Force_Field> (1)
S-OPLS

>  <r_lp_Energy> (1)
52.1318

>  <b_lp_Chiralities_Consistent> (1)
1

$$$$
