9176_Dibenz(a,j)anthracene
                    3D
 Schrodinger Suite 2021-3.
 36 40  0  0  1  0            999 V2000
   -0.8476   -6.1778    5.0194 C   0  0  0  0  0  0
   -0.8190   -6.9287    3.8325 C   0  0  0  0  0  0
   -0.8580   -6.2939    2.6036 C   0  0  0  0  0  0
   -0.9270   -4.8870    2.5002 C   0  0  0  0  0  0
   -0.9556   -4.1315    3.7081 C   0  0  0  0  0  0
   -0.9150   -4.7996    4.9510 C   0  0  0  0  0  0
   -1.0253   -2.6963    3.6530 C   0  0  0  0  0  0
   -1.0648   -2.0375    2.4682 C   0  0  0  0  0  0
   -1.0384   -2.7499    1.2205 C   0  0  0  0  0  0
   -1.0786   -2.0686    0.0010 C   0  0  0  0  0  0
   -1.0541   -2.7360   -1.2265 C   0  0  0  0  0  0
   -0.9859   -4.1677   -1.2425 C   0  0  0  0  0  0
   -0.9459   -4.8408   -0.0149 C   0  0  0  0  0  0
   -0.9695   -4.1816    1.2207 C   0  0  0  0  0  0
   -0.9609   -4.8596   -2.5293 C   0  0  0  0  0  0
   -0.8950   -6.2655   -2.6496 C   0  0  0  0  0  0
   -0.8726   -6.8860   -3.8864 C   0  0  0  0  0  0
   -0.9155   -6.1221   -5.0646 C   0  0  0  0  0  0
   -0.9805   -4.7447   -4.9798 C   0  0  0  0  0  0
   -1.0044   -4.0910   -3.7287 C   0  0  0  0  0  0
   -1.0722   -2.6556   -3.6582 C   0  0  0  0  0  0
   -1.0961   -2.0095   -2.4660 C   0  0  0  0  0  0
   -0.8169   -6.6781    5.9826 H   0  0  0  0  0  0
   -0.7661   -8.0126    3.8768 H   0  0  0  0  0  0
   -0.8345   -6.9025    1.7067 H   0  0  0  0  0  0
   -0.9377   -4.2064    5.8611 H   0  0  0  0  0  0
   -1.0458   -2.1463    4.5901 H   0  0  0  0  0  0
   -1.1173   -0.9523    2.4405 H   0  0  0  0  0  0
   -1.1307   -0.9822    0.0073 H   0  0  0  0  0  0
   -0.8942   -5.9208   -0.0217 H   0  0  0  0  0  0
   -0.8606   -6.8846   -1.7600 H   0  0  0  0  0  0
   -0.8214   -7.9693   -3.9441 H   0  0  0  0  0  0
   -0.8978   -6.6115   -6.0338 H   0  0  0  0  0  0
   -1.0144   -4.1410   -5.8827 H   0  0  0  0  0  0
   -1.1041   -2.0960   -4.5893 H   0  0  0  0  0  0
   -1.1475   -0.9247   -2.4259 H   0  0  0  0  0  0
  1  6  1  0  0  0
  1  2  2  0  0  0
  1 23  1  0  0  0
  2  3  1  0  0  0
  2 24  1  0  0  0
  3  4  2  0  0  0
  3 25  1  0  0  0
  4 14  1  0  0  0
  4  5  1  0  0  0
  5  6  2  0  0  0
  5  7  1  0  0  0
  6 26  1  0  0  0
  7  8  2  0  0  0
  7 27  1  0  0  0
  8  9  1  0  0  0
  8 28  1  0  0  0
  9 14  1  0  0  0
  9 10  2  0  0  0
 10 11  1  0  0  0
 10 29  1  0  0  0
 11 22  1  0  0  0
 11 12  2  0  0  0
 12 13  1  0  0  0
 12 15  1  0  0  0
 13 14  2  0  0  0
 13 30  1  0  0  0
 15 20  1  0  0  0
 15 16  2  0  0  0
 16 17  1  0  0  0
 16 31  1  0  0  0
 17 18  2  0  0  0
 17 32  1  0  0  0
 18 19  1  0  0  0
 18 33  1  0  0  0
 19 20  2  0  0  0
 19 34  1  0  0  0
 20 21  1  0  0  0
 21 22  2  0  0  0
 21 35  1  0  0  0
 22 36  1  0  0  0
M  END
>  <i_m_Spin_multiplicity> (1)
1

>  <s_j_Task> (1)
Single Point

>  <s_j_QM_Method> (1)
DFT(b3lyp-d3)

>  <s_j_QM_Basis> (1)
cc-pvtz(-f)

>  <i_j_Number_of_canonical_orbitals> (1)
610

>  <i_j_Geometry_convergence_category> (1)
0

>  <r_j_Gas_Phase_Energy> (1)
-847.100444347477

>  <r_j_Final_Energy> (1)
-847.100444347477

>  <r_j_HOMO> (1)
-0.231154289817499

>  <r_j_LUMO> (1)
-0.0915875707784826

>  <r_j_Polarizability> (1)
283.960815321843

>  <r_j_QM_Dipole_(debye)> (1)
0.0728136314144174

>  <r_j_QM_Dipole_X_(debye)> (1)
0.00448525398304587

>  <r_j_QM_Dipole_Y_(debye)> (1)
-0.0726328724974878

>  <r_j_QM_Dipole_Z_(debye)> (1)
-0.0024846024281334

>  <r_j_Lowest_Frequency_(cm-1)> (1)
68.879571118803

>  <r_j_Highest_Frequency_(cm-1)> (1)
3182.35824070032

>  <r_j_2nd_Lowest_Frequency_(cm-1)> (1)
80.3467615769565

>  <i_j_Num_Negative_Frequencies> (1)
0

>  <r_j_Zero_Point_Energy_(kcal/mol)> (1)
179.986816072728

>  <r_j_Entropy_(cal/mol/K)_298.15K_1.00E+00atm> (1)
117.344003263886

>  <r_j_Enthalpy_(kcal/mol)_298.15K_1.00E+00atm> (1)
9.60103664959189

>  <r_j_Free_Energy_(kcal/mol)_298.15K_1.00E+00atm> (1)
-25.3850779235357

>  <r_j_Internal_Energy_(kcal/mol)_298.15K_1.00E+00atm> (1)
9.00855106076461

>  <r_j_Heat_Capacity_(cal/mol/K)_298.15K_1.00E+00atm> (1)
63.2106381532815

>  <r_j_ln(Q)_298.15K_1.00E+00atm> (1)
42.8450554785328

>  <r_j_Total_Internal_Energy_(au)_298.15K_1.00E+00atm> (1)
-846.799261056755

>  <r_j_Total_Enthalpy_(au)_298.15K_1.00E+00atm> (1)
-846.798316870863

>  <r_j_Total_Free_Energy_(au)_298.15K_1.00E+00atm> (1)
-846.854070793705

>  <r_lp_tautomer_probability> (1)
1

>  <r_epik_Ionization_Penalty> (1)
  0.0000

>  <r_epik_Ionization_Penalty_Charging> (1)
  0.0000

>  <r_epik_Ionization_Penalty_Neutral> (1)
  0.0000

>  <r_epik_State_Penalty> (1)
  0.0000

>  <r_epik_Charging_Adjusted_Penalty> (1)
0

>  <i_epik_Tot_Q> (1)
0

>  <i_epik_Tot_abs_Q> (1)
0

>  <s_lp_Force_Field> (1)
S-OPLS

>  <r_lp_Energy> (1)
52.2689

>  <b_lp_Chiralities_Consistent> (1)
1

$$$$
