9177_Dibenz(a,j)acridine
                    3D
 Schrodinger Suite 2021-3.
 36 40  0  0  1  0            999 V2000
   -0.8494   -6.1221    5.0555 C   0  0  0  0  0  0
   -0.8203   -6.9026    3.8868 C   0  0  0  0  0  0
   -0.8582   -6.3065    2.6379 C   0  0  0  0  0  0
   -0.9266   -4.9043    2.5083 C   0  0  0  0  0  0
   -0.9561   -4.1148    3.6963 C   0  0  0  0  0  0
   -0.9166   -4.7463    4.9590 C   0  0  0  0  0  0
   -1.0255   -2.6885    3.6014 C   0  0  0  0  0  0
   -1.0649   -2.0401    2.4010 C   0  0  0  0  0  0
   -1.0362   -2.8031    1.2068 C   0  0  0  0  0  0
   -1.0739   -2.1729    0.0003 N   0  3  1  0  0  0
   -1.0518   -2.7898   -1.2133 C   0  0  0  0  0  0
   -0.9843   -4.2117   -1.2443 C   0  0  0  0  0  0
   -0.9447   -4.8815   -0.0152 C   0  0  0  0  0  0
   -0.9680   -4.2251    1.2216 C   0  0  0  0  0  0
   -0.9602   -4.8770   -2.5378 C   0  0  0  0  0  0
   -0.8945   -6.2776   -2.6847 C   0  0  0  0  0  0
   -0.8736   -6.8593   -3.9407 C   0  0  0  0  0  0
   -0.9176   -6.0659   -5.1002 C   0  0  0  0  0  0
   -0.9825   -4.6913   -4.9870 C   0  0  0  0  0  0
   -1.0049   -4.0746   -3.7165 C   0  0  0  0  0  0
   -1.0722   -2.6492   -3.6060 C   0  0  0  0  0  0
   -1.0957   -2.0136   -2.3985 C   0  0  0  0  0  0
   -0.8191   -6.6010    6.0284 H   0  0  0  0  0  0
   -0.7675   -7.9839    3.9621 H   0  0  0  0  0  0
   -0.8341   -6.9420    1.7598 H   0  0  0  0  0  0
   -0.9397   -4.1328    5.8542 H   0  0  0  0  0  0
   -1.0469   -2.1109    4.5209 H   0  0  0  0  0  0
   -1.1174   -0.9568    2.3499 H   0  0  0  0  0  0
   -0.8932   -5.9615   -0.0217 H   0  0  0  0  0  0
   -0.8592   -6.9233   -1.8145 H   0  0  0  0  0  0
   -0.8226   -7.9397   -4.0289 H   0  0  0  0  0  0
   -0.9006   -6.5338   -6.0788 H   0  0  0  0  0  0
   -1.0172   -4.0672   -5.8744 H   0  0  0  0  0  0
   -1.1054   -2.0622   -4.5191 H   0  0  0  0  0  0
   -1.1471   -0.9308   -2.3349 H   0  0  0  0  0  0
   -1.1223   -1.1591    0.0062 H   0  0  0  0  0  0
  1  6  1  0  0  0
  1  2  2  0  0  0
  1 23  1  0  0  0
  2  3  1  0  0  0
  2 24  1  0  0  0
  3  4  2  0  0  0
  3 25  1  0  0  0
  4 14  1  0  0  0
  4  5  1  0  0  0
  5  6  2  0  0  0
  5  7  1  0  0  0
  6 26  1  0  0  0
  7  8  2  0  0  0
  7 27  1  0  0  0
  8  9  1  0  0  0
  8 28  1  0  0  0
  9 14  1  0  0  0
  9 10  2  0  0  0
 10 11  1  0  0  0
 10 36  1  0  0  0
 11 22  1  0  0  0
 11 12  2  0  0  0
 12 13  1  0  0  0
 12 15  1  0  0  0
 13 14  2  0  0  0
 13 29  1  0  0  0
 15 20  1  0  0  0
 15 16  2  0  0  0
 16 17  1  0  0  0
 16 30  1  0  0  0
 17 18  2  0  0  0
 17 31  1  0  0  0
 18 19  1  0  0  0
 18 32  1  0  0  0
 19 20  2  0  0  0
 19 33  1  0  0  0
 20 21  1  0  0  0
 21 22  2  0  0  0
 21 34  1  0  0  0
 22 35  1  0  0  0
M  END
>  <i_m_Spin_multiplicity> (1)
1

>  <s_j_Task> (1)
Single Point

>  <s_j_QM_Method> (1)
DFT(b3lyp-d3)

>  <s_j_QM_Basis> (1)
cc-pvtz(-f)

>  <i_j_Number_of_canonical_orbitals> (1)
612

>  <i_j_Geometry_convergence_category> (1)
0

>  <r_j_Gas_Phase_Energy> (1)
-863.542739322508

>  <r_j_Final_Energy> (1)
-863.542739322508

>  <r_j_HOMO> (1)
-0.373497899132531

>  <r_j_LUMO> (1)
-0.256422053611079

>  <r_j_Polarizability> (1)
283.226443496021

>  <r_j_QM_Dipole_(debye)> (1)
2.57268127139393

>  <r_j_QM_Dipole_X_(debye)> (1)
-0.121818650195885

>  <r_j_QM_Dipole_Y_(debye)> (1)
2.56976155391921

>  <r_j_QM_Dipole_Z_(debye)> (1)
0.013217285813406

>  <r_j_Lowest_Frequency_(cm-1)> (1)
70.8072340917191

>  <r_j_Highest_Frequency_(cm-1)> (1)
3519.00725439308

>  <r_j_2nd_Lowest_Frequency_(cm-1)> (1)
80.9790313827068

>  <i_j_Num_Negative_Frequencies> (1)
0

>  <r_j_Zero_Point_Energy_(kcal/mol)> (1)
181.153440422715

>  <r_j_Entropy_(cal/mol/K)_298.15K_1.00E+00atm> (1)
117.637558502825

>  <r_j_Enthalpy_(kcal/mol)_298.15K_1.00E+00atm> (1)
9.64700159443093

>  <r_j_Free_Energy_(kcal/mol)_298.15K_1.00E+00atm> (1)
-25.4266364731863

>  <r_j_Internal_Energy_(kcal/mol)_298.15K_1.00E+00atm> (1)
9.05451600560366

>  <r_j_Heat_Capacity_(cal/mol/K)_298.15K_1.00E+00atm> (1)
63.3040512201248

>  <r_j_ln(Q)_298.15K_1.00E+00atm> (1)
42.9151981966583

>  <r_j_Total_Internal_Energy_(au)_298.15K_1.00E+00atm> (1)
-863.23962364773

>  <r_j_Total_Enthalpy_(au)_298.15K_1.00E+00atm> (1)
-863.238679461838

>  <r_j_Total_Free_Energy_(au)_298.15K_1.00E+00atm> (1)
-863.294572862248

>  <r_epik_Ionization_Penalty> (1)
  2.4059

>  <r_epik_Ionization_Penalty_Charging> (1)
  2.4059

>  <r_epik_Ionization_Penalty_Neutral> (1)
  0.0000

>  <r_epik_State_Penalty> (1)
  2.5642

>  <r_epik_Charging_Adjusted_Penalty> (1)
4.97011

>  <i_epik_Tot_Q> (1)
1

>  <i_epik_Tot_abs_Q> (1)
1

>  <s_lp_Force_Field> (1)
S-OPLS

>  <r_lp_Energy> (1)
52.5859

>  <b_lp_Chiralities_Consistent> (1)
1

$$$$
