91948_Tripropylene Glycol N-Butyl Ether
                    3D
 Schrodinger Suite 2021-3.
 45 44  0  0  1  0            999 V2000
   -2.9037    4.2396   -3.6987 O   0  0  0  0  0  0
   -1.5402    4.2366   -4.1146 C   0  0  0  0  0  0
   -0.7979    3.1383   -3.3544 C   0  0  0  0  0  0
   -0.8557    3.3979   -1.8496 C   0  0  0  0  0  0
   -0.2992    2.2812   -1.1715 O   0  0  0  0  0  0
   -0.3256    2.4183    0.2358 C   0  0  0  0  0  0
    0.2653    1.1760    0.8792 C   0  0  0  0  0  0
    1.6772    1.1427    0.7409 O   0  0  0  0  0  0
    2.2304   -0.0015    0.0826 C   0  0  0  0  0  0
    3.6881   -0.0952    0.5352 C   0  0  0  0  0  0
    3.8402   -0.3374    2.0399 C   0  0  0  0  0  0
    5.3082   -0.3667    2.4716 C   0  0  0  0  0  0
    5.4949   -0.5285    3.8703 O   0  0  0  0  0  0
    5.2728   -1.8458    4.3491 C   0  0  0  0  0  0
    5.6805   -1.8842    5.8128 C   0  0  0  0  0  0
    2.0965    0.1199   -1.4350 C   0  0  0  0  0  0
    0.6469    3.0151   -3.8521 C   0  0  0  0  0  0
   -3.3581    4.9554   -4.1596 H   0  0  0  0  0  0
   -1.4523    4.0468   -5.1965 H   0  0  0  0  0  0
   -1.0582    5.2099   -3.9151 H   0  0  0  0  0  0
   -1.3264    2.1943   -3.5402 H   0  0  0  0  0  0
   -0.2890    4.3156   -1.6065 H   0  0  0  0  0  0
   -1.8979    3.5586   -1.5384 H   0  0  0  0  0  0
    0.2519    3.3006    0.5567 H   0  0  0  0  0  0
   -1.3627    2.5498    0.5923 H   0  0  0  0  0  0
    0.0158    1.1846    1.9509 H   0  0  0  0  0  0
   -0.2063    0.2897    0.4337 H   0  0  0  0  0  0
    1.6987   -0.9070    0.4235 H   0  0  0  0  0  0
    4.1775   -0.8997   -0.0295 H   0  0  0  0  0  0
    4.1891    0.8403    0.2520 H   0  0  0  0  0  0
    3.3205    0.4524    2.5909 H   0  0  0  0  0  0
    3.3539   -1.2859    2.3027 H   0  0  0  0  0  0
    5.8496   -1.1560    1.9199 H   0  0  0  0  0  0
    5.7831    0.5887    2.2196 H   0  0  0  0  0  0
    4.2156   -2.1371    4.2432 H   0  0  0  0  0  0
    5.8665   -2.5693    3.7630 H   0  0  0  0  0  0
    5.5250   -2.8839    6.2308 H   0  0  0  0  0  0
    5.0872   -1.1688    6.3895 H   0  0  0  0  0  0
    6.7359   -1.6180    5.9208 H   0  0  0  0  0  0
    2.4928   -0.7721   -1.9323 H   0  0  0  0  0  0
    2.6536    0.9947   -1.7853 H   0  0  0  0  0  0
    1.0521    0.2546   -1.7244 H   0  0  0  0  0  0
    1.1903    3.9576   -3.7097 H   0  0  0  0  0  0
    0.6820    2.7634   -4.9176 H   0  0  0  0  0  0
    1.1751    2.2389   -3.2960 H   0  0  0  0  0  0
  1  2  1  0  0  0
  1 18  1  0  0  0
  2  3  1  0  0  0
  2 19  1  0  0  0
  2 20  1  0  0  0
  3  4  1  0  0  0
  3 17  1  0  0  0
  3 21  1  0  0  0
  4  5  1  0  0  0
  4 22  1  0  0  0
  4 23  1  0  0  0
  5  6  1  0  0  0
  6  7  1  0  0  0
  6 24  1  0  0  0
  6 25  1  0  0  0
  7  8  1  0  0  0
  7 26  1  0  0  0
  7 27  1  0  0  0
  8  9  1  0  0  0
  9 10  1  0  0  0
  9 16  1  0  0  0
  9 28  1  0  0  0
 10 11  1  0  0  0
 10 29  1  0  0  0
 10 30  1  0  0  0
 11 12  1  0  0  0
 11 31  1  0  0  0
 11 32  1  0  0  0
 12 13  1  0  0  0
 12 33  1  0  0  0
 12 34  1  0  0  0
 13 14  1  0  0  0
 14 15  1  0  0  0
 14 35  1  0  0  0
 14 36  1  0  0  0
 15 37  1  0  0  0
 15 38  1  0  0  0
 15 39  1  0  0  0
 16 40  1  0  0  0
 16 41  1  0  0  0
 16 42  1  0  0  0
 17 43  1  0  0  0
 17 44  1  0  0  0
 17 45  1  0  0  0
M  END
>  <i_m_Spin_multiplicity> (1)
1

>  <s_j_Task> (1)
Single Point

>  <s_j_QM_Method> (1)
DFT(b3lyp-d3)

>  <s_j_QM_Basis> (1)
cc-pvtz(-f)

>  <i_j_Number_of_canonical_orbitals> (1)
642

>  <i_j_Geometry_convergence_category> (1)
3

>  <r_j_Gas_Phase_Energy> (1)
-813.436215329906

>  <r_j_Final_Energy> (1)
-813.436215329906

>  <r_j_HOMO> (1)
-0.233877452294

>  <r_j_LUMO> (1)
0.00795054659023903

>  <r_j_Polarizability> (1)
179.720001572505

>  <r_j_QM_Dipole_(debye)> (1)
2.36803219459674

>  <r_j_QM_Dipole_X_(debye)> (1)
-1.39630768640587

>  <r_j_QM_Dipole_Y_(debye)> (1)
0.351000356535858

>  <r_j_QM_Dipole_Z_(debye)> (1)
-1.88007980395574

>  <r_j_Lowest_Frequency_(cm-1)> (1)
28.6903648846353

>  <r_j_Highest_Frequency_(cm-1)> (1)
3778.3783839688

>  <r_j_2nd_Lowest_Frequency_(cm-1)> (1)
34.9440535408321

>  <i_j_Num_Negative_Frequencies> (1)
0

>  <r_j_Zero_Point_Energy_(kcal/mol)> (1)
254.732009855412

>  <r_j_Entropy_(cal/mol/K)_298.15K_1.00E+00atm> (1)
143.822946393024

>  <r_j_Enthalpy_(kcal/mol)_298.15K_1.00E+00atm> (1)
13.2985874896071

>  <r_j_Free_Energy_(kcal/mol)_298.15K_1.00E+00atm> (1)
-29.582223977473

>  <r_j_Internal_Energy_(kcal/mol)_298.15K_1.00E+00atm> (1)
12.7061019007798

>  <r_j_Heat_Capacity_(cal/mol/K)_298.15K_1.00E+00atm> (1)
76.2924410057192

>  <r_j_ln(Q)_298.15K_1.00E+00atm> (1)
49.9290185876521

>  <r_j_Total_Internal_Energy_(au)_298.15K_1.00E+00atm> (1)
-813.010025567772

>  <r_j_Total_Enthalpy_(au)_298.15K_1.00E+00atm> (1)
-813.00908138188

>  <r_j_Total_Free_Energy_(au)_298.15K_1.00E+00atm> (1)
-813.077416305124

>  <r_lp_tautomer_probability> (1)
1

>  <r_epik_Ionization_Penalty> (1)
  0.0000

>  <r_epik_Ionization_Penalty_Charging> (1)
  0.0000

>  <r_epik_Ionization_Penalty_Neutral> (1)
  0.0000

>  <r_epik_State_Penalty> (1)
  0.0000

>  <r_epik_Charging_Adjusted_Penalty> (1)
0

>  <i_epik_Tot_Q> (1)
0

>  <i_epik_Tot_abs_Q> (1)
0

>  <s_lp_Force_Field> (1)
S-OPLS

>  <r_lp_Energy> (1)
4.161327

>  <b_lp_Chiralities_Consistent> (1)
1

$$$$
