9201_2,3-Benzofluorene
                    3D
 Schrodinger Suite 2021-3.
 29 32  0  0  1  0            999 V2000
   -1.5551   -1.6050   -0.9354 C   0  0  0  0  0  0
   -0.9434   -1.0625   -2.2123 C   0  0  0  0  0  0
   -1.2140   -1.4048   -3.5314 C   0  0  0  0  0  0
   -0.5136   -0.7601   -4.5564 C   0  0  0  0  0  0
    0.4455    0.2151   -4.2608 C   0  0  0  0  0  0
    0.7206    0.5621   -2.9380 C   0  0  0  0  0  0
    0.0223   -0.0807   -1.9134 C   0  0  0  0  0  0
    0.1028    0.0783   -0.4589 C   0  0  0  0  0  0
    0.8870    0.9041    0.3144 C   0  0  0  0  0  0
    0.7703    0.8635    1.7283 C   0  0  0  0  0  0
    1.5566    1.6948    2.5703 C   0  0  0  0  0  0
    1.4291    1.6410    3.9392 C   0  0  0  0  0  0
    0.5050    0.7494    4.5346 C   0  0  0  0  0  0
   -0.2727   -0.0703    3.7481 C   0  0  0  0  0  0
   -0.1680   -0.0419    2.3332 C   0  0  0  0  0  0
   -0.9640   -0.8823    1.5039 C   0  0  0  0  0  0
   -0.8303   -0.8222    0.1426 C   0  0  0  0  0  0
   -1.3971   -2.6865   -0.8329 H   0  0  0  0  0  0
   -2.6403   -1.4429   -0.9001 H   0  0  0  0  0  0
   -1.9578   -2.1614   -3.7673 H   0  0  0  0  0  0
   -0.7155   -1.0185   -5.5919 H   0  0  0  0  0  0
    0.9798    0.7056   -5.0694 H   0  0  0  0  0  0
    1.4653    1.3192   -2.7090 H   0  0  0  0  0  0
    1.5973    1.5896   -0.1409 H   0  0  0  0  0  0
    2.2657    2.3787    2.1104 H   0  0  0  0  0  0
    2.0383    2.2837    4.5682 H   0  0  0  0  0  0
    0.4117    0.7144    5.6161 H   0  0  0  0  0  0
   -0.9829   -0.7557    4.2039 H   0  0  0  0  0  0
   -1.6714   -1.5644    1.9701 H   0  0  0  0  0  0
  1 17  1  0  0  0
  1  2  1  0  0  0
  1 18  1  0  0  0
  1 19  1  0  0  0
  2  7  1  0  0  0
  2  3  2  0  0  0
  3  4  1  0  0  0
  3 20  1  0  0  0
  4  5  2  0  0  0
  4 21  1  0  0  0
  5  6  1  0  0  0
  5 22  1  0  0  0
  6  7  2  0  0  0
  6 23  1  0  0  0
  7  8  1  0  0  0
  8 17  1  0  0  0
  8  9  2  0  0  0
  9 10  1  0  0  0
  9 24  1  0  0  0
 10 15  1  0  0  0
 10 11  2  0  0  0
 11 12  1  0  0  0
 11 25  1  0  0  0
 12 13  2  0  0  0
 12 26  1  0  0  0
 13 14  1  0  0  0
 13 27  1  0  0  0
 14 15  2  0  0  0
 14 28  1  0  0  0
 15 16  1  0  0  0
 16 17  2  0  0  0
 16 29  1  0  0  0
M  END
>  <i_m_Spin_multiplicity> (1)
1

>  <s_j_Task> (1)
Single Point

>  <s_j_QM_Method> (1)
DFT(b3lyp-d3)

>  <s_j_QM_Basis> (1)
cc-pvtz(-f)

>  <i_j_Number_of_canonical_orbitals> (1)
483

>  <i_j_Geometry_convergence_category> (1)
0

>  <r_j_Gas_Phase_Energy> (1)
-655.280469522504

>  <r_j_Final_Energy> (1)
-655.280469522504

>  <r_j_HOMO> (1)
-0.212851288720128

>  <r_j_LUMO> (1)
-0.0586745635596742

>  <r_j_Polarizability> (1)
206.356302576977

>  <r_j_QM_Dipole_(debye)> (1)
0.651486789536289

>  <r_j_QM_Dipole_X_(debye)> (1)
-0.414577298523289

>  <r_j_QM_Dipole_Y_(debye)> (1)
-0.429265917231001

>  <r_j_QM_Dipole_Z_(debye)> (1)
-0.261326372173303

>  <r_j_Lowest_Frequency_(cm-1)> (1)
80.988537721673

>  <r_j_Highest_Frequency_(cm-1)> (1)
3146.26709340874

>  <r_j_2nd_Lowest_Frequency_(cm-1)> (1)
118.006414399696

>  <i_j_Num_Negative_Frequencies> (1)
0

>  <r_j_Zero_Point_Energy_(kcal/mol)> (1)
146.515473480412

>  <r_j_Entropy_(cal/mol/K)_298.15K_1.00E+00atm> (1)
103.392221084726

>  <r_j_Enthalpy_(kcal/mol)_298.15K_1.00E+00atm> (1)
7.66848492019495

>  <r_j_Free_Energy_(kcal/mol)_298.15K_1.00E+00atm> (1)
-23.1579057962161

>  <r_j_Internal_Energy_(kcal/mol)_298.15K_1.00E+00atm> (1)
7.07599933136768

>  <r_j_Heat_Capacity_(cal/mol/K)_298.15K_1.00E+00atm> (1)
49.2221416680916

>  <r_j_ln(Q)_298.15K_1.00E+00atm> (1)
39.0860237496296

>  <r_j_Total_Internal_Energy_(au)_298.15K_1.00E+00atm> (1)
-655.035705929037

>  <r_j_Total_Enthalpy_(au)_298.15K_1.00E+00atm> (1)
-655.034761743145

>  <r_j_Total_Free_Energy_(au)_298.15K_1.00E+00atm> (1)
-655.083886724026

>  <r_lp_tautomer_probability> (1)
1

>  <r_epik_Ionization_Penalty> (1)
  0.0000

>  <r_epik_Ionization_Penalty_Charging> (1)
  0.0000

>  <r_epik_Ionization_Penalty_Neutral> (1)
  0.0000

>  <r_epik_State_Penalty> (1)
  0.0000

>  <r_epik_Charging_Adjusted_Penalty> (1)
0

>  <i_epik_Tot_Q> (1)
0

>  <i_epik_Tot_abs_Q> (1)
0

>  <s_lp_Force_Field> (1)
S-OPLS

>  <r_lp_Energy> (1)
19.3845

>  <b_lp_Chiralities_Consistent> (1)
1

$$$$
