9222_Pyrolo[2,3-b]pyridine
                    3D
 Schrodinger Suite 2021-3.
 15 16  0  0  1  0            999 V2000
    2.6295   -6.6252   -7.8025 C   0  0  0  0  0  0
    2.5409   -6.8602   -6.4342 C   0  0  0  0  0  0
    3.5981   -7.5462   -5.8242 C   0  0  0  0  0  0
    4.6723   -7.9402   -6.6744 C   0  0  0  0  0  0
    5.5974   -8.5916   -5.8919 N   0  0  0  0  0  0
    5.1438   -8.6204   -4.5864 C   0  0  0  0  0  0
    3.9275   -7.9934   -4.5020 C   0  0  0  0  0  0
    4.7845   -7.7297   -7.9844 N   0  0  0  0  0  0
    3.7526   -7.0717   -8.5241 C   0  0  0  0  0  0
    1.8380   -6.0981   -8.3254 H   0  0  0  0  0  0
    1.6821   -6.5234   -5.8604 H   0  0  0  0  0  0
    6.4608   -8.9778   -6.2380 H   0  0  0  0  0  0
    5.7331   -9.0920   -3.8135 H   0  0  0  0  0  0
    3.3400   -7.8673   -3.6040 H   0  0  0  0  0  0
    3.8152   -6.8843   -9.5940 H   0  0  0  0  0  0
  1  9  1  0  0  0
  1  2  2  0  0  0
  1 10  1  0  0  0
  2  3  1  0  0  0
  2 11  1  0  0  0
  3  7  1  0  0  0
  3  4  2  0  0  0
  4  5  1  0  0  0
  4  8  1  0  0  0
  5  6  1  0  0  0
  5 12  1  0  0  0
  6  7  2  0  0  0
  6 13  1  0  0  0
  7 14  1  0  0  0
  8  9  2  0  0  0
  9 15  1  0  0  0
M  END
>  <i_m_Spin_multiplicity> (1)
1

>  <s_j_Task> (1)
Single Point

>  <s_j_QM_Method> (1)
DFT(b3lyp-d3)

>  <s_j_QM_Basis> (1)
cc-pvtz(-f)

>  <i_j_Number_of_canonical_orbitals> (1)
257

>  <i_j_Geometry_convergence_category> (1)
0

>  <r_j_Gas_Phase_Energy> (1)
-379.98793347805

>  <r_j_Final_Energy> (1)
-379.98793347805

>  <r_j_HOMO> (1)
-0.233355949189601

>  <r_j_LUMO> (1)
-0.042549716874911

>  <r_j_Polarizability> (1)
89.0415582349431

>  <r_j_QM_Dipole_(debye)> (1)
1.62585683200049

>  <r_j_QM_Dipole_X_(debye)> (1)
0.289239421381571

>  <r_j_QM_Dipole_Y_(debye)> (1)
-0.468786542058489

>  <r_j_QM_Dipole_Z_(debye)> (1)
1.5297026421061

>  <r_j_Lowest_Frequency_(cm-1)> (1)
234.189821398354

>  <r_j_Highest_Frequency_(cm-1)> (1)
3624.82943095356

>  <r_j_2nd_Lowest_Frequency_(cm-1)> (1)
252.288021482517

>  <i_j_Num_Negative_Frequencies> (1)
0

>  <r_j_Zero_Point_Energy_(kcal/mol)> (1)
73.6343907175092

>  <r_j_Entropy_(cal/mol/K)_298.15K_1.00E+00atm> (1)
77.9814039713687

>  <r_j_Enthalpy_(kcal/mol)_298.15K_1.00E+00atm> (1)
4.35924051616357

>  <r_j_Free_Energy_(kcal/mol)_298.15K_1.00E+00atm> (1)
-18.8909150779

>  <r_j_Internal_Energy_(kcal/mol)_298.15K_1.00E+00atm> (1)
3.76675492733629

>  <r_j_Heat_Capacity_(cal/mol/K)_298.15K_1.00E+00atm> (1)
24.9722778684012

>  <r_j_ln(Q)_298.15K_1.00E+00atm> (1)
31.8841764831638

>  <r_j_Total_Internal_Energy_(au)_298.15K_1.00E+00atm> (1)
-379.864586900276

>  <r_j_Total_Enthalpy_(au)_298.15K_1.00E+00atm> (1)
-379.863642714384

>  <r_j_Total_Free_Energy_(au)_298.15K_1.00E+00atm> (1)
-379.900694196004

>  <r_lp_tautomer_probability> (1)
0.999998

>  <r_epik_Ionization_Penalty> (1)
  0.0026

>  <r_epik_Ionization_Penalty_Charging> (1)
  0.0000

>  <r_epik_Ionization_Penalty_Neutral> (1)
  0.0026

>  <r_epik_State_Penalty> (1)
  0.0018

>  <r_epik_Charging_Adjusted_Penalty> (1)
0.00183808

>  <i_epik_Tot_Q> (1)
0

>  <i_epik_Tot_abs_Q> (1)
0

>  <s_lp_Force_Field> (1)
S-OPLS

>  <r_lp_Energy> (1)
13.8121

>  <b_lp_Chiralities_Consistent> (1)
1

$$$$
