92239_3-methyldecane
                    3D
 Schrodinger Suite 2021-3.
 35 34  0  0  1  0            999 V2000
   -4.2392    2.9765    0.0765 C   0  0  0  0  0  0
   -2.7101    2.9388    0.0002 C   0  0  0  0  0  0
   -2.1414    1.5150    0.0239 C   0  0  0  0  0  0
   -0.6111    1.4708   -0.0490 C   0  0  0  0  0  0
   -0.0361    0.0501   -0.0307 C   0  0  0  0  0  0
    1.4955    0.0171   -0.0961 C   0  0  0  0  0  0
    2.0665   -1.4069   -0.1022 C   0  0  0  0  0  0
    3.6030   -1.4937   -0.0203 C   0  0  0  0  0  0
    4.2800   -0.7740   -1.1970 C   0  0  0  0  0  0
    4.0929   -2.9548    0.0507 C   0  0  0  0  0  0
    3.6394   -3.7340    1.2902 C   0  0  0  0  0  0
   -4.6186    4.0035    0.0573 H   0  0  0  0  0  0
   -4.5995    2.5049    0.9980 H   0  0  0  0  0  0
   -4.6892    2.4387   -0.7660 H   0  0  0  0  0  0
   -2.3744    3.4460   -0.9146 H   0  0  0  0  0  0
   -2.2856    3.5108    0.8366 H   0  0  0  0  0  0
   -2.4778    1.0049    0.9381 H   0  0  0  0  0  0
   -2.5633    0.9416   -0.8141 H   0  0  0  0  0  0
   -0.2766    1.9854   -0.9612 H   0  0  0  0  0  0
   -0.1913    2.0428    0.7909 H   0  0  0  0  0  0
   -0.3742   -0.4683    0.8779 H   0  0  0  0  0  0
   -0.4487   -0.5204   -0.8751 H   0  0  0  0  0  0
    1.8224    0.5595   -0.9921 H   0  0  0  0  0  0
    1.9068    0.5696    0.7613 H   0  0  0  0  0  0
    1.6292   -1.9534    0.7426 H   0  0  0  0  0  0
    1.7294   -1.9301   -1.0098 H   0  0  0  0  0  0
    3.9164   -0.9932    0.9098 H   0  0  0  0  0  0
    3.9611   -1.2103   -2.1519 H   0  0  0  0  0  0
    5.3700   -0.8647   -1.1384 H   0  0  0  0  0  0
    4.0394    0.2926   -1.2215 H   0  0  0  0  0  0
    3.7669   -3.4825   -0.8572 H   0  0  0  0  0  0
    5.1903   -2.9521    0.0192 H   0  0  0  0  0  0
    4.1043   -4.7247    1.3206 H   0  0  0  0  0  0
    2.5554   -3.8822    1.3113 H   0  0  0  0  0  0
    3.9201   -3.2068    2.2095 H   0  0  0  0  0  0
  1  2  1  0  0  0
  1 12  1  0  0  0
  1 13  1  0  0  0
  1 14  1  0  0  0
  2  3  1  0  0  0
  2 15  1  0  0  0
  2 16  1  0  0  0
  3  4  1  0  0  0
  3 17  1  0  0  0
  3 18  1  0  0  0
  4  5  1  0  0  0
  4 19  1  0  0  0
  4 20  1  0  0  0
  5  6  1  0  0  0
  5 21  1  0  0  0
  5 22  1  0  0  0
  6  7  1  0  0  0
  6 23  1  0  0  0
  6 24  1  0  0  0
  7  8  1  0  0  0
  7 25  1  0  0  0
  7 26  1  0  0  0
  8  9  1  0  0  0
  8 10  1  0  0  0
  8 27  1  0  0  0
  9 28  1  0  0  0
  9 29  1  0  0  0
  9 30  1  0  0  0
 10 11  1  0  0  0
 10 31  1  0  0  0
 10 32  1  0  0  0
 11 33  1  0  0  0
 11 34  1  0  0  0
 11 35  1  0  0  0
M  END
>  <i_m_Spin_multiplicity> (1)
1

>  <s_j_Task> (1)
Single Point

>  <s_j_QM_Method> (1)
DFT(b3lyp-d3)

>  <s_j_QM_Basis> (1)
cc-pvtz(-f)

>  <i_j_Number_of_canonical_orbitals> (1)
465

>  <i_j_Geometry_convergence_category> (1)
0

>  <r_j_Gas_Phase_Energy> (1)
-433.828874011626

>  <r_j_Final_Energy> (1)
-433.828874011626

>  <r_j_HOMO> (1)
-0.295125054380884

>  <r_j_LUMO> (1)
0.0187621197501572

>  <r_j_Polarizability> (1)
136.989388945755

>  <r_j_QM_Dipole_(debye)> (1)
0.0840579636191286

>  <r_j_QM_Dipole_X_(debye)> (1)
0.0640392750474314

>  <r_j_QM_Dipole_Y_(debye)> (1)
0.03424303931335

>  <r_j_QM_Dipole_Z_(debye)> (1)
0.0423335181360886

>  <r_j_Lowest_Frequency_(cm-1)> (1)
56.795017854415

>  <r_j_Highest_Frequency_(cm-1)> (1)
3057.03256583311

>  <r_j_2nd_Lowest_Frequency_(cm-1)> (1)
70.6529419098778

>  <i_j_Num_Negative_Frequencies> (1)
0

>  <r_j_Zero_Point_Energy_(kcal/mol)> (1)
207.533812057862

>  <r_j_Entropy_(cal/mol/K)_298.15K_1.00E+00atm> (1)
114.639470324225

>  <r_j_Enthalpy_(kcal/mol)_298.15K_1.00E+00atm> (1)
9.3467618993421

>  <r_j_Free_Energy_(kcal/mol)_298.15K_1.00E+00atm> (1)
-24.8329961778255

>  <r_j_Internal_Energy_(kcal/mol)_298.15K_1.00E+00atm> (1)
8.75427631051483

>  <r_j_Heat_Capacity_(cal/mol/K)_298.15K_1.00E+00atm> (1)
52.9549264775219

>  <r_j_ln(Q)_298.15K_1.00E+00atm> (1)
41.9132492774689

>  <r_j_Total_Internal_Energy_(au)_298.15K_1.00E+00atm> (1)
-433.484197000826

>  <r_j_Total_Enthalpy_(au)_298.15K_1.00E+00atm> (1)
-433.483252814934

>  <r_j_Total_Free_Energy_(au)_298.15K_1.00E+00atm> (1)
-433.537721726897

>  <r_lp_tautomer_probability> (1)
1

>  <r_epik_Ionization_Penalty> (1)
  0.0000

>  <r_epik_Ionization_Penalty_Charging> (1)
  0.0000

>  <r_epik_Ionization_Penalty_Neutral> (1)
  0.0000

>  <r_epik_State_Penalty> (1)
  0.0000

>  <r_epik_Charging_Adjusted_Penalty> (1)
0

>  <i_epik_Tot_Q> (1)
0

>  <i_epik_Tot_abs_Q> (1)
0

>  <s_lp_Force_Field> (1)
S-OPLS

>  <r_lp_Energy> (1)
5.718196

>  <b_lp_Chiralities_Consistent> (1)
1

$$$$
