9223_2,3-benzofuran
                    3D
 Schrodinger Suite 2021-3.
 15 16  0  0  1  0            999 V2000
    0.0054   -0.6470   -1.1899 C   0  0  0  0  0  0
    0.0046    0.0093    0.0549 C   0  0  0  0  0  0
    0.0210   -0.7064    1.2505 C   0  0  0  0  0  0
    0.0382   -2.0910    1.1418 C   0  0  0  0  0  0
    0.0396   -2.7781   -0.0868 C   0  0  0  0  0  0
    0.0228   -2.0356   -1.2767 C   0  0  0  0  0  0
    0.0597   -4.1794    0.2598 C   0  0  0  0  0  0
    0.0686   -4.2299    1.6142 C   0  0  0  0  0  0
    0.0559   -2.9800    2.1843 O   0  0  0  0  0  0
   -0.0077   -0.0540   -2.0996 H   0  0  0  0  0  0
   -0.0093    1.0946    0.0853 H   0  0  0  0  0  0
    0.0206   -0.2181    2.2187 H   0  0  0  0  0  0
    0.0233   -2.5332   -2.2417 H   0  0  0  0  0  0
    0.0666   -5.0256   -0.4115 H   0  0  0  0  0  0
    0.0835   -5.0531    2.3123 H   0  0  0  0  0  0
  1  6  1  0  0  0
  1  2  2  0  0  0
  1 10  1  0  0  0
  2  3  1  0  0  0
  2 11  1  0  0  0
  3  4  2  0  0  0
  3 12  1  0  0  0
  4  9  1  0  0  0
  4  5  1  0  0  0
  5  6  2  0  0  0
  5  7  1  0  0  0
  6 13  1  0  0  0
  7  8  2  0  0  0
  7 14  1  0  0  0
  8  9  1  0  0  0
  8 15  1  0  0  0
M  END
>  <i_m_Spin_multiplicity> (1)
1

>  <s_j_Task> (1)
Single Point

>  <s_j_QM_Method> (1)
DFT(b3lyp-d3)

>  <s_j_QM_Basis> (1)
cc-pvtz(-f)

>  <i_j_Number_of_canonical_orbitals> (1)
256

>  <i_j_Geometry_convergence_category> (1)
0

>  <r_j_Gas_Phase_Energy> (1)
-383.803032899112

>  <r_j_Final_Energy> (1)
-383.803032899112

>  <r_j_HOMO> (1)
-0.244389715287796

>  <r_j_LUMO> (1)
-0.0450234055571382

>  <r_j_Polarizability> (1)
87.9535075757191

>  <r_j_QM_Dipole_(debye)> (1)
0.73328781984643

>  <r_j_QM_Dipole_X_(debye)> (1)
0.00504863364892194

>  <r_j_QM_Dipole_Y_(debye)> (1)
-0.591695728987281

>  <r_j_QM_Dipole_Z_(debye)> (1)
-0.433107033343514

>  <r_j_Lowest_Frequency_(cm-1)> (1)
228.179171367686

>  <r_j_Highest_Frequency_(cm-1)> (1)
3229.90497071358

>  <r_j_2nd_Lowest_Frequency_(cm-1)> (1)
262.76355251459

>  <i_j_Num_Negative_Frequencies> (1)
0

>  <r_j_Zero_Point_Energy_(kcal/mol)> (1)
73.1145706611502

>  <r_j_Entropy_(cal/mol/K)_298.15K_1.00E+00atm> (1)
77.6990458608177

>  <r_j_Enthalpy_(kcal/mol)_298.15K_1.00E+00atm> (1)
4.29399336174545

>  <r_j_Free_Energy_(kcal/mol)_298.15K_1.00E+00atm> (1)
-18.8719771616573

>  <r_j_Internal_Energy_(kcal/mol)_298.15K_1.00E+00atm> (1)
3.70150777291817

>  <r_j_Heat_Capacity_(cal/mol/K)_298.15K_1.00E+00atm> (1)
24.6056476084045

>  <r_j_ln(Q)_298.15K_1.00E+00atm> (1)
31.8522129778907

>  <r_j_Total_Internal_Energy_(au)_298.15K_1.00E+00atm> (1)
-383.680618685293

>  <r_j_Total_Enthalpy_(au)_298.15K_1.00E+00atm> (1)
-383.679674499401

>  <r_j_Total_Free_Energy_(au)_298.15K_1.00E+00atm> (1)
-383.71659182357

>  <r_lp_tautomer_probability> (1)
1

>  <r_epik_Ionization_Penalty> (1)
  0.0000

>  <r_epik_Ionization_Penalty_Charging> (1)
  0.0000

>  <r_epik_Ionization_Penalty_Neutral> (1)
  0.0000

>  <r_epik_State_Penalty> (1)
  0.0000

>  <r_epik_Charging_Adjusted_Penalty> (1)
0

>  <i_epik_Tot_Q> (1)
0

>  <i_epik_Tot_abs_Q> (1)
0

>  <s_lp_Force_Field> (1)
S-OPLS

>  <r_lp_Energy> (1)
12.9276

>  <b_lp_Chiralities_Consistent> (1)
1

$$$$
