92373_3,9-dimethylphenanthrene
                    3D
 Schrodinger Suite 2021-3.
 30 32  0  0  1  0            999 V2000
   -0.0223    0.0008    0.0001 C   0  0  0  0  0  0
    1.4875    0.0186    0.0000 C   0  0  0  0  0  0
    2.1965    1.2073    0.0000 C   0  0  0  0  0  0
    3.6116    1.2454    0.0000 C   0  0  0  0  0  0
    4.3147    0.0111    0.0000 C   0  0  0  0  0  0
    3.5831   -1.2009   -0.0001 C   0  0  0  0  0  0
    2.2062   -1.1996    0.0000 C   0  0  0  0  0  0
    5.7429    0.0096    0.0000 C   0  0  0  0  0  0
    6.4902    1.1524    0.0000 C   0  0  0  0  0  0
    5.8118    2.4331    0.0000 C   0  0  0  0  0  0
    6.5224    3.6601    0.0001 C   0  0  0  0  0  0
    5.8745    4.8784    0.0001 C   0  0  0  0  0  0
    4.4709    4.9227    0.0000 C   0  0  0  0  0  0
    3.7482    3.7470   -0.0001 C   0  0  0  0  0  0
    4.3794    2.4803    0.0000 C   0  0  0  0  0  0
    8.0010    1.0188    0.0000 C   0  0  0  0  0  0
   -0.4390    1.0119    0.0001 H   0  0  0  0  0  0
   -0.4116   -0.5230    0.8812 H   0  0  0  0  0  0
   -0.4117   -0.5231   -0.8809 H   0  0  0  0  0  0
    1.6329    2.1335    0.0000 H   0  0  0  0  0  0
    4.1300   -2.1404   -0.0001 H   0  0  0  0  0  0
    1.6606   -2.1399    0.0000 H   0  0  0  0  0  0
    6.2475   -0.9547   -0.0001 H   0  0  0  0  0  0
    7.6055    3.6511    0.0002 H   0  0  0  0  0  0
    6.4501    5.7995    0.0001 H   0  0  0  0  0  0
    3.9534    5.8776   -0.0001 H   0  0  0  0  0  0
    2.6661    3.8063   -0.0001 H   0  0  0  0  0  0
    8.5291    1.9713   -0.0001 H   0  0  0  0  0  0
    8.3366    0.4623   -0.8817 H   0  0  0  0  0  0
    8.3366    0.4625    0.8819 H   0  0  0  0  0  0
  1  2  1  0  0  0
  1 17  1  0  0  0
  1 18  1  0  0  0
  1 19  1  0  0  0
  2  7  1  0  0  0
  2  3  2  0  0  0
  3  4  1  0  0  0
  3 20  1  0  0  0
  4 15  1  0  0  0
  4  5  2  0  0  0
  5  6  1  0  0  0
  5  8  1  0  0  0
  6  7  2  0  0  0
  6 21  1  0  0  0
  7 22  1  0  0  0
  8  9  2  0  0  0
  8 23  1  0  0  0
  9 10  1  0  0  0
  9 16  1  0  0  0
 10 15  1  0  0  0
 10 11  2  0  0  0
 11 12  1  0  0  0
 11 24  1  0  0  0
 12 13  2  0  0  0
 12 25  1  0  0  0
 13 14  1  0  0  0
 13 26  1  0  0  0
 14 15  2  0  0  0
 14 27  1  0  0  0
 16 28  1  0  0  0
 16 29  1  0  0  0
 16 30  1  0  0  0
M  END
>  <i_m_Spin_multiplicity> (1)
1

>  <s_j_Task> (1)
Single Point

>  <s_j_QM_Method> (1)
DFT(b3lyp-d3)

>  <s_j_QM_Basis> (1)
cc-pvtz(-f)

>  <i_j_Number_of_canonical_orbitals> (1)
479

>  <i_j_Geometry_convergence_category> (1)
0

>  <r_j_Gas_Phase_Energy> (1)
-618.377229725294

>  <r_j_Final_Energy> (1)
-618.377229725294

>  <r_j_HOMO> (1)
-0.201733749380883

>  <r_j_LUMO> (1)
-0.0359150454775714

>  <r_j_Polarizability> (1)
193.45665180022

>  <r_j_QM_Dipole_(debye)> (1)
0.19948001260051

>  <r_j_QM_Dipole_X_(debye)> (1)
-0.0219542533809521

>  <r_j_QM_Dipole_Y_(debye)> (1)
-0.19826821282625

>  <r_j_QM_Dipole_Z_(debye)> (1)
4.43651847633066e-05

>  <r_j_Lowest_Frequency_(cm-1)> (1)
-77.9106249062085

>  <r_j_Highest_Frequency_(cm-1)> (1)
3166.18716456102

>  <r_j_2nd_Lowest_Frequency_(cm-1)> (1)
84.8384911142644

>  <i_j_Num_Negative_Frequencies> (1)
1

>  <r_j_Zero_Point_Energy_(kcal/mol)> (1)
155.717593266115

>  <r_j_Entropy_(cal/mol/K)_298.15K_1.00E+00atm> (1)
105.378349136924

>  <r_j_Enthalpy_(kcal/mol)_298.15K_1.00E+00atm> (1)
8.01337481133514

>  <r_j_Free_Energy_(kcal/mol)_298.15K_1.00E+00atm> (1)
-23.4051799838388

>  <r_j_Internal_Energy_(kcal/mol)_298.15K_1.00E+00atm> (1)
7.42088922250786

>  <r_j_Heat_Capacity_(cal/mol/K)_298.15K_1.00E+00atm> (1)
50.0359038617379

>  <r_j_ln(Q)_298.15K_1.00E+00atm> (1)
39.5033743017537

>  <r_j_Total_Internal_Energy_(au)_298.15K_1.00E+00atm> (1)
-618.117252003382

>  <r_j_Total_Enthalpy_(au)_298.15K_1.00E+00atm> (1)
-618.11630781749

>  <r_j_Total_Free_Energy_(au)_298.15K_1.00E+00atm> (1)
-618.166376471905

>  <r_lp_tautomer_probability> (1)
1

>  <r_epik_Ionization_Penalty> (1)
  0.0000

>  <r_epik_Ionization_Penalty_Charging> (1)
  0.0000

>  <r_epik_Ionization_Penalty_Neutral> (1)
  0.0000

>  <r_epik_State_Penalty> (1)
  0.0000

>  <r_epik_Charging_Adjusted_Penalty> (1)
0

>  <i_epik_Tot_Q> (1)
0

>  <i_epik_Tot_abs_Q> (1)
0

>  <s_lp_Force_Field> (1)
S-OPLS

>  <r_lp_Energy> (1)
32.818

>  <b_lp_Chiralities_Consistent> (1)
1

$$$$
