923_Sodium ion
                    3D
 Schrodinger Suite 2021-3.
  1  0  0  0  1  0            999 V2000
    0.0000    0.0000    0.0000 Na  0  3  0  0  0  0
M  END
>  <i_m_Spin_multiplicity> (1)
1

>  <s_j_Task> (1)
Single Point

>  <s_j_QM_Method> (1)
DFT(b3lyp-d3)

>  <s_j_QM_Basis> (1)
cc-pvtz(-f)

>  <i_j_Number_of_canonical_orbitals> (1)
27

>  <r_j_Gas_Phase_Energy> (1)
-162.097715685781

>  <r_j_Final_Energy> (1)
-162.097715685781

>  <r_j_Polarizability> (1)
0.469352123503213

>  <r_j_QM_Dipole_(debye)> (1)
2.02251251312993e-09

>  <r_j_QM_Dipole_X_(debye)> (1)
2.36109940049775e-11

>  <r_j_QM_Dipole_Y_(debye)> (1)
1.73700419498482e-12

>  <r_j_QM_Dipole_Z_(debye)> (1)
-2.0223739440434e-09

>  <r_j_Zero_Point_Energy_(kcal/mol)> (1)
0

>  <r_j_Entropy_(cal/mol/K)_298.15K_1.00E+00atm> (1)
35.33590379071

>  <r_j_Enthalpy_(kcal/mol)_298.15K_1.00E+00atm> (1)
1.48121397206819

>  <r_j_Free_Energy_(kcal/mol)_298.15K_1.00E+00atm> (1)
-9.05418574313201

>  <r_j_Internal_Energy_(kcal/mol)_298.15K_1.00E+00atm> (1)
0.888728383240912

>  <r_j_Heat_Capacity_(cal/mol/K)_298.15K_1.00E+00atm> (1)
2.98080960335707

>  <r_j_ln(Q)_298.15K_1.00E+00atm> (1)
15.2816978402011

>  <r_j_Total_Internal_Energy_(au)_298.15K_1.00E+00atm> (1)
-162.096299406943

>  <r_j_Total_Enthalpy_(au)_298.15K_1.00E+00atm> (1)
-162.095355221051

>  <r_j_Total_Free_Energy_(au)_298.15K_1.00E+00atm> (1)
-162.112144449292

>  <r_j_HOMO> (1)
-1.45043949327996

>  <r_j_LUMO> (1)
-0.260779919649278

$$$$
