92839_1-phenoxy-2-Propanol
                    3D
 Schrodinger Suite 2021-3.
 23 23  0  0  1  0            999 V2000
   -0.7558    1.3615   -0.0258 C   0  0  0  0  0  0
   -0.0464    0.0170    0.0444 C   0  0  0  0  0  0
    1.4694    0.1825    0.0673 C   0  0  0  0  0  0
    2.0128   -1.1378    0.0980 O   0  0  0  0  0  0
    3.3700   -1.3022    0.0330 C   0  0  0  0  0  0
    3.8167   -2.6299    0.0200 C   0  0  0  0  0  0
    5.1783   -2.9021   -0.0399 C   0  0  0  0  0  0
    6.1093   -1.8595   -0.0874 C   0  0  0  0  0  0
    5.6577   -0.5425   -0.0730 C   0  0  0  0  0  0
    4.2917   -0.2513   -0.0126 C   0  0  0  0  0  0
   -0.4374   -0.7346   -1.0972 O   0  0  0  0  0  0
   -0.5271    1.9746    0.8517 H   0  0  0  0  0  0
   -1.8363    1.2056   -0.0708 H   0  0  0  0  0  0
   -0.4529    1.9031   -0.9276 H   0  0  0  0  0  0
   -0.3381   -0.5081    0.9701 H   0  0  0  0  0  0
    1.7962    0.7074   -0.8411 H   0  0  0  0  0  0
    1.7928    0.7543    0.9485 H   0  0  0  0  0  0
    3.0793   -3.4252    0.0586 H   0  0  0  0  0  0
    5.5159   -3.9345   -0.0499 H   0  0  0  0  0  0
    7.1723   -2.0748   -0.1346 H   0  0  0  0  0  0
    6.3697    0.2772   -0.1085 H   0  0  0  0  0  0
    3.9630    0.7808   -0.0004 H   0  0  0  0  0  0
    0.1222   -1.5246   -1.1071 H   0  0  0  0  0  0
  1  2  1  0  0  0
  1 12  1  0  0  0
  1 13  1  0  0  0
  1 14  1  0  0  0
  2  3  1  0  0  0
  2 11  1  0  0  0
  2 15  1  0  0  0
  3  4  1  0  0  0
  3 16  1  0  0  0
  3 17  1  0  0  0
  4  5  1  0  0  0
  5 10  1  0  0  0
  5  6  2  0  0  0
  6  7  1  0  0  0
  6 18  1  0  0  0
  7  8  2  0  0  0
  7 19  1  0  0  0
  8  9  1  0  0  0
  8 20  1  0  0  0
  9 10  2  0  0  0
  9 21  1  0  0  0
 10 22  1  0  0  0
 11 23  1  0  0  0
M  END
>  <i_m_Spin_multiplicity> (1)
1

>  <s_j_Task> (1)
Single Point

>  <s_j_QM_Method> (1)
DFT(b3lyp-d3)

>  <s_j_QM_Basis> (1)
cc-pvtz(-f)

>  <i_j_Number_of_canonical_orbitals> (1)
355

>  <i_j_Geometry_convergence_category> (1)
0

>  <r_j_Gas_Phase_Energy> (1)
-500.808942048306

>  <r_j_Final_Energy> (1)
-500.808942048306

>  <r_j_HOMO> (1)
-0.238617011391755

>  <r_j_LUMO> (1)
-0.0255212084051018

>  <r_j_Polarizability> (1)
111.632883949721

>  <r_j_QM_Dipole_(debye)> (1)
1.54526909932251

>  <r_j_QM_Dipole_X_(debye)> (1)
0.940233868677074

>  <r_j_QM_Dipole_Y_(debye)> (1)
0.798443278638583

>  <r_j_QM_Dipole_Z_(debye)> (1)
0.930755173131159

>  <r_j_Lowest_Frequency_(cm-1)> (1)
65.9925454796375

>  <r_j_Highest_Frequency_(cm-1)> (1)
3737.07684242028

>  <r_j_2nd_Lowest_Frequency_(cm-1)> (1)
81.6297054718224

>  <i_j_Num_Negative_Frequencies> (1)
0

>  <r_j_Zero_Point_Energy_(kcal/mol)> (1)
121.699492562404

>  <r_j_Entropy_(cal/mol/K)_298.15K_1.00E+00atm> (1)
97.4849975203584

>  <r_j_Enthalpy_(kcal/mol)_298.15K_1.00E+00atm> (1)
6.89861499634481

>  <r_j_Free_Energy_(kcal/mol)_298.15K_1.00E+00atm> (1)
-22.1665370143501

>  <r_j_Internal_Energy_(kcal/mol)_298.15K_1.00E+00atm> (1)
6.30612940751753

>  <r_j_Heat_Capacity_(cal/mol/K)_298.15K_1.00E+00atm> (1)
39.5236581141431

>  <r_j_ln(Q)_298.15K_1.00E+00atm> (1)
37.4127867957514

>  <r_j_Total_Internal_Energy_(au)_298.15K_1.00E+00atm> (1)
-500.604952103788

>  <r_j_Total_Enthalpy_(au)_298.15K_1.00E+00atm> (1)
-500.604007917896

>  <r_j_Total_Free_Energy_(au)_298.15K_1.00E+00atm> (1)
-500.650326186225

>  <r_lp_tautomer_probability> (1)
1

>  <r_epik_Ionization_Penalty> (1)
  0.0000

>  <r_epik_Ionization_Penalty_Charging> (1)
  0.0000

>  <r_epik_Ionization_Penalty_Neutral> (1)
  0.0000

>  <r_epik_State_Penalty> (1)
  0.0000

>  <r_epik_Charging_Adjusted_Penalty> (1)
0

>  <i_epik_Tot_Q> (1)
0

>  <i_epik_Tot_abs_Q> (1)
0

>  <s_lp_Force_Field> (1)
S-OPLS

>  <r_lp_Energy> (1)
9.94739

>  <b_lp_Chiralities_Consistent> (1)
1

$$$$
