92978_2,4-dimethyloctane
                    3D
 Schrodinger Suite 2021-3.
 32 31  0  0  1  0            999 V2000
   -2.6825    2.9731   -0.0047 C   0  0  0  0  0  0
   -2.1000    1.5593    0.0786 C   0  0  0  0  0  0
   -0.5783    1.5244   -0.1106 C   0  0  0  0  0  0
   -0.0018    0.1042   -0.0461 C   0  0  0  0  0  0
    1.5360    0.0193   -0.0665 C   0  0  0  0  0  0
    2.1324    0.6676   -1.3262 C   0  0  0  0  0  0
    2.0328   -1.4373    0.0447 C   0  0  0  0  0  0
    1.5659   -2.2538    1.2662 C   0  0  0  0  0  0
    1.9156   -1.5675    2.5941 C   0  0  0  0  0  0
    2.1674   -3.6659    1.2139 C   0  0  0  0  0  0
   -3.7683    2.9710    0.1374 H   0  0  0  0  0  0
   -2.4744    3.4283   -0.9799 H   0  0  0  0  0  0
   -2.2468    3.6243    0.7620 H   0  0  0  0  0  0
   -2.3541    1.1127    1.0497 H   0  0  0  0  0  0
   -2.5723    0.9211   -0.6809 H   0  0  0  0  0  0
   -0.3300    1.9919   -1.0719 H   0  0  0  0  0  0
   -0.1027    2.1461    0.6624 H   0  0  0  0  0  0
   -0.3746   -0.3723    0.8693 H   0  0  0  0  0  0
   -0.4023   -0.4902   -0.8813 H   0  0  0  0  0  0
    1.9123    0.5789    0.8024 H   0  0  0  0  0  0
    1.7354    0.1924   -2.2321 H   0  0  0  0  0  0
    3.2222    0.5577   -1.3447 H   0  0  0  0  0  0
    1.9080    1.7365   -1.3841 H   0  0  0  0  0  0
    1.7353   -1.9745   -0.8682 H   0  0  0  0  0  0
    3.1329   -1.4273    0.0424 H   0  0  0  0  0  0
    0.4735   -2.3603    1.2163 H   0  0  0  0  0  0
    2.9964   -1.3933    2.6666 H   0  0  0  0  0  0
    1.6208   -2.1886    3.4470 H   0  0  0  0  0  0
    1.4149   -0.6002    2.7009 H   0  0  0  0  0  0
    3.2619   -3.6256    1.2786 H   0  0  0  0  0  0
    1.9083   -4.1765    0.2798 H   0  0  0  0  0  0
    1.8080   -4.2821    2.0453 H   0  0  0  0  0  0
  1  2  1  0  0  0
  1 11  1  0  0  0
  1 12  1  0  0  0
  1 13  1  0  0  0
  2  3  1  0  0  0
  2 14  1  0  0  0
  2 15  1  0  0  0
  3  4  1  0  0  0
  3 16  1  0  0  0
  3 17  1  0  0  0
  4  5  1  0  0  0
  4 18  1  0  0  0
  4 19  1  0  0  0
  5  6  1  0  0  0
  5  7  1  0  0  0
  5 20  1  0  0  0
  6 21  1  0  0  0
  6 22  1  0  0  0
  6 23  1  0  0  0
  7  8  1  0  0  0
  7 24  1  0  0  0
  7 25  1  0  0  0
  8  9  1  0  0  0
  8 10  1  0  0  0
  8 26  1  0  0  0
  9 27  1  0  0  0
  9 28  1  0  0  0
  9 29  1  0  0  0
 10 30  1  0  0  0
 10 31  1  0  0  0
 10 32  1  0  0  0
M  END
>  <i_m_Spin_multiplicity> (1)
1

>  <s_j_Task> (1)
Single Point

>  <s_j_QM_Method> (1)
DFT(b3lyp-d3)

>  <s_j_QM_Basis> (1)
cc-pvtz(-f)

>  <i_j_Number_of_canonical_orbitals> (1)
425

>  <i_j_Geometry_convergence_category> (1)
0

>  <r_j_Gas_Phase_Energy> (1)
-394.50043667405

>  <r_j_Final_Energy> (1)
-394.50043667405

>  <r_j_HOMO> (1)
-0.301732125430322

>  <r_j_LUMO> (1)
0.0141552938165366

>  <r_j_Polarizability> (1)
123.543498577159

>  <r_j_QM_Dipole_(debye)> (1)
0.126932693452053

>  <r_j_QM_Dipole_X_(debye)> (1)
-0.113175711008159

>  <r_j_QM_Dipole_Y_(debye)> (1)
0.0015514708996417

>  <r_j_QM_Dipole_Z_(debye)> (1)
0.0574522414083045

>  <r_j_Lowest_Frequency_(cm-1)> (1)
74.0567522923058

>  <r_j_Highest_Frequency_(cm-1)> (1)
3056.11240501657

>  <r_j_2nd_Lowest_Frequency_(cm-1)> (1)
97.4008103875453

>  <i_j_Num_Negative_Frequencies> (1)
0

>  <r_j_Zero_Point_Energy_(kcal/mol)> (1)
189.519471523474

>  <r_j_Entropy_(cal/mol/K)_298.15K_1.00E+00atm> (1)
107.647183281138

>  <r_j_Enthalpy_(kcal/mol)_298.15K_1.00E+00atm> (1)
8.51426253852486

>  <r_j_Free_Energy_(kcal/mol)_298.15K_1.00E+00atm> (1)
-23.5807451567463

>  <r_j_Internal_Energy_(kcal/mol)_298.15K_1.00E+00atm> (1)
7.92177694969759

>  <r_j_Heat_Capacity_(cal/mol/K)_298.15K_1.00E+00atm> (1)
48.6276992628767

>  <r_j_ln(Q)_298.15K_1.00E+00atm> (1)
39.7996940371502

>  <r_j_Total_Internal_Energy_(au)_298.15K_1.00E+00atm> (1)
-394.185794014596

>  <r_j_Total_Enthalpy_(au)_298.15K_1.00E+00atm> (1)
-394.184849828704

>  <r_j_Total_Free_Energy_(au)_298.15K_1.00E+00atm> (1)
-394.23599647944

>  <r_lp_tautomer_probability> (1)
1

>  <r_epik_Ionization_Penalty> (1)
  0.0000

>  <r_epik_Ionization_Penalty_Charging> (1)
  0.0000

>  <r_epik_Ionization_Penalty_Neutral> (1)
  0.0000

>  <r_epik_State_Penalty> (1)
  0.0000

>  <r_epik_Charging_Adjusted_Penalty> (1)
0

>  <i_epik_Tot_Q> (1)
0

>  <i_epik_Tot_abs_Q> (1)
0

>  <s_lp_Force_Field> (1)
S-OPLS

>  <r_lp_Energy> (1)
5.527299

>  <b_lp_Chiralities_Consistent> (1)
1

$$$$
