9321_Hydrazine
                    3D
 Schrodinger Suite 2021-3.
  6  5  0  0  1  0            999 V2000
    2.3517   -0.3570    0.0000 N   0  0  0  0  0  0
    3.5882    0.3570    0.0000 N   0  0  0  0  0  0
    1.5013    0.1637    0.0000 H   0  0  0  0  0  0
    2.3777   -1.3539   -0.0000 H   0  0  0  0  0  0
    4.4386   -0.1637    0.0000 H   0  0  0  0  0  0
    3.5622    1.3539   -0.0000 H   0  0  0  0  0  0
  1  2  1  0  0  0
  1  3  1  0  0  0
  1  4  1  0  0  0
  2  5  1  0  0  0
  2  6  1  0  0  0
M  END
>  <i_m_Spin_multiplicity> (1)
1

>  <s_j_Task> (1)
Single Point

>  <s_j_QM_Method> (1)
DFT(b3lyp-d3)

>  <s_j_QM_Basis> (1)
cc-pvtz(-f)

>  <i_j_Number_of_canonical_orbitals> (1)
82

>  <r_j_Gas_Phase_Energy> (1)
-111.867948829078

>  <r_j_Final_Energy> (1)
-111.867948829078

>  <r_j_Polarizability> (1)
17.0047419174622

>  <r_j_QM_Dipole_(debye)> (1)
3.09395414013612e-06

>  <r_j_QM_Dipole_X_(debye)> (1)
4.54779209868013e-07

>  <r_j_QM_Dipole_Y_(debye)> (1)
3.33412288424153e-07

>  <r_j_QM_Dipole_Z_(debye)> (1)
-3.04213154506262e-06

>  <r_j_Zero_Point_Energy_(kcal/mol)> (1)
30.9402891476814

>  <r_j_Entropy_(cal/mol/K)_298.15K_1.00E+00atm> (1)
52.5832117497021

>  <r_j_Enthalpy_(kcal/mol)_298.15K_1.00E+00atm> (1)
2.41969958588734

>  <r_j_Free_Energy_(kcal/mol)_298.15K_1.00E+00atm> (1)
-13.2579849972863

>  <r_j_Internal_Energy_(kcal/mol)_298.15K_1.00E+00atm> (1)
1.82721399706006

>  <r_j_Heat_Capacity_(cal/mol/K)_298.15K_1.00E+00atm> (1)
6.85976132538439

>  <r_j_ln(Q)_298.15K_1.00E+00atm> (1)
22.3768902523491

>  <r_j_Total_Internal_Energy_(au)_298.15K_1.00E+00atm> (1)
-111.815730488621

>  <r_j_Total_Enthalpy_(au)_298.15K_1.00E+00atm> (1)
-111.814786302728

>  <r_j_Total_Free_Energy_(au)_298.15K_1.00E+00atm> (1)
-111.839770283581

>  <r_j_HOMO> (1)
-0.139503077353076

>  <r_j_LUMO> (1)
0.0406543966784991

>  <r_j_Lowest_Frequency_(cm-1)> (1)
-1055.78579722391

>  <r_j_Highest_Frequency_(cm-1)> (1)
3832.72474215255

>  <r_j_2nd_Lowest_Frequency_(cm-1)> (1)
-955.184573868954

>  <i_j_Num_Negative_Frequencies> (1)
3

>  <i_j_Geometry_convergence_category> (1)
0

$$$$
