93390_Ethoxylated Propoxylated Alcohols, C8-10
                    3D
 Schrodinger Suite 2021-3.
 34 33  0  0  1  0            999 V2000
   -4.7010    2.6216   -1.2734 C   0  0  0  0  0  0
   -3.9426    2.9567    0.0111 C   0  0  0  0  0  0
   -2.5377    2.7750   -0.0931 O   0  0  0  0  0  0
   -2.1126    1.4215   -0.0937 C   0  0  0  0  0  0
   -0.5901    1.4025   -0.0631 C   0  0  0  0  0  0
   -0.0137   -0.0171   -0.0570 C   0  0  0  0  0  0
    1.5187   -0.0431   -0.0284 C   0  0  0  0  0  0
    2.1015   -1.4603   -0.0137 C   0  0  0  0  0  0
    3.6338   -1.4865    0.0160 C   0  0  0  0  0  0
    4.2099   -2.9059    0.0357 C   0  0  0  0  0  0
    5.7319   -2.9294    0.0661 C   0  0  0  0  0  0
    6.1488   -4.2915    0.0832 O   0  0  0  0  0  0
   -5.7596    2.8818   -1.1677 H   0  0  0  0  0  0
   -4.6435    1.5562   -1.5159 H   0  0  0  0  0  0
   -4.2866    3.1872   -2.1135 H   0  0  0  0  0  0
   -4.0806    4.0150    0.2572 H   0  0  0  0  0  0
   -4.3434    2.3683    0.8542 H   0  0  0  0  0  0
   -2.5201    0.8913    0.7859 H   0  0  0  0  0  0
   -2.4750    0.8861   -0.9866 H   0  0  0  0  0  0
   -0.2189    1.9576   -0.9336 H   0  0  0  0  0  0
   -0.2534    1.9525    0.8243 H   0  0  0  0  0  0
   -0.4008   -0.5674    0.8125 H   0  0  0  0  0  0
   -0.3682   -0.5626   -0.9433 H   0  0  0  0  0  0
    1.9070    0.5022   -0.9002 H   0  0  0  0  0  0
    1.8741    0.5061    0.8549 H   0  0  0  0  0  0
    1.7127   -2.0051    0.8582 H   0  0  0  0  0  0
    1.7464   -2.0101   -0.8968 H   0  0  0  0  0  0
    4.0216   -0.9435   -0.8579 H   0  0  0  0  0  0
    3.9874   -0.9334    0.8980 H   0  0  0  0  0  0
    3.8385   -3.4533    0.9110 H   0  0  0  0  0  0
    3.8733   -3.4638   -0.8471 H   0  0  0  0  0  0
    6.1280   -2.3988   -0.8166 H   0  0  0  0  0  0
    6.0926   -2.3874    0.9570 H   0  0  0  0  0  0
    7.1137   -4.3097    0.1030 H   0  0  0  0  0  0
  1  2  1  0  0  0
  1 13  1  0  0  0
  1 14  1  0  0  0
  1 15  1  0  0  0
  2  3  1  0  0  0
  2 16  1  0  0  0
  2 17  1  0  0  0
  3  4  1  0  0  0
  4  5  1  0  0  0
  4 18  1  0  0  0
  4 19  1  0  0  0
  5  6  1  0  0  0
  5 20  1  0  0  0
  5 21  1  0  0  0
  6  7  1  0  0  0
  6 22  1  0  0  0
  6 23  1  0  0  0
  7  8  1  0  0  0
  7 24  1  0  0  0
  7 25  1  0  0  0
  8  9  1  0  0  0
  8 26  1  0  0  0
  8 27  1  0  0  0
  9 10  1  0  0  0
  9 28  1  0  0  0
  9 29  1  0  0  0
 10 11  1  0  0  0
 10 30  1  0  0  0
 10 31  1  0  0  0
 11 12  1  0  0  0
 11 32  1  0  0  0
 11 33  1  0  0  0
 12 34  1  0  0  0
M  END
>  <i_m_Spin_multiplicity> (1)
1

>  <s_j_Task> (1)
Single Point

>  <s_j_QM_Method> (1)
DFT(b3lyp-d3)

>  <s_j_QM_Basis> (1)
cc-pvtz(-f)

>  <i_j_Number_of_canonical_orbitals> (1)
472

>  <i_j_Geometry_convergence_category> (1)
0

>  <r_j_Gas_Phase_Energy> (1)
-544.973647765944

>  <r_j_Final_Energy> (1)
-544.973647765944

>  <r_j_HOMO> (1)
-0.244023579889802

>  <r_j_LUMO> (1)
0.0121068885688005

>  <r_j_Polarizability> (1)
134.41939191336

>  <r_j_QM_Dipole_(debye)> (1)
0.356113350486585

>  <r_j_QM_Dipole_X_(debye)> (1)
0.203366189038928

>  <r_j_QM_Dipole_Y_(debye)> (1)
0.291945549242326

>  <r_j_QM_Dipole_Z_(debye)> (1)
0.0150568199883144

>  <r_j_Lowest_Frequency_(cm-1)> (1)
41.3869341736543

>  <r_j_Highest_Frequency_(cm-1)> (1)
3773.13655939263

>  <r_j_2nd_Lowest_Frequency_(cm-1)> (1)
55.0321034403199

>  <i_j_Num_Negative_Frequencies> (1)
0

>  <r_j_Zero_Point_Energy_(kcal/mol)> (1)
195.893024451148

>  <r_j_Entropy_(cal/mol/K)_298.15K_1.00E+00atm> (1)
120.117383211209

>  <r_j_Enthalpy_(kcal/mol)_298.15K_1.00E+00atm> (1)
9.91296625276078

>  <r_j_Free_Energy_(kcal/mol)_298.15K_1.00E+00atm> (1)
-25.9000315516611

>  <r_j_Internal_Energy_(kcal/mol)_298.15K_1.00E+00atm> (1)
9.32048066393351

>  <r_j_Heat_Capacity_(cal/mol/K)_298.15K_1.00E+00atm> (1)
54.4413306840482

>  <r_j_ln(Q)_298.15K_1.00E+00atm> (1)
43.7141966658225

>  <r_j_Total_Internal_Energy_(au)_298.15K_1.00E+00atm> (1)
-544.646619227051

>  <r_j_Total_Enthalpy_(au)_298.15K_1.00E+00atm> (1)
-544.645675041159

>  <r_j_Total_Free_Energy_(au)_298.15K_1.00E+00atm> (1)
-544.702746686316

>  <r_lp_tautomer_probability> (1)
1

>  <r_epik_Ionization_Penalty> (1)
  0.0000

>  <r_epik_Ionization_Penalty_Charging> (1)
  0.0000

>  <r_epik_Ionization_Penalty_Neutral> (1)
  0.0000

>  <r_epik_State_Penalty> (1)
  0.0000

>  <r_epik_Charging_Adjusted_Penalty> (1)
0

>  <i_epik_Tot_Q> (1)
0

>  <i_epik_Tot_abs_Q> (1)
0

>  <s_lp_Force_Field> (1)
S-OPLS

>  <r_lp_Energy> (1)
6.270122

>  <b_lp_Chiralities_Consistent> (1)
1

$$$$
