936_Pyridine-3-Carboxamide
                    3D
 Schrodinger Suite 2021-3.
 15 15  0  0  1  0            999 V2000
   -2.1715   -1.1286   -0.0220 C   0  0  0  0  0  0
   -0.7835   -1.2392   -0.0348 C   0  0  0  0  0  0
   -0.0145   -0.0722    0.0105 C   0  0  0  0  0  0
   -0.6895    1.1567    0.0502 C   0  0  0  0  0  0
   -2.0195    1.2777    0.0726 N   0  0  0  0  0  0
   -2.7368    0.1460    0.0377 C   0  0  0  0  0  0
    1.4861   -0.0495   -0.0085 C   0  0  0  0  0  0
    2.1130    0.9278   -0.3946 O   0  0  0  0  0  0
    2.1115   -1.2010    0.4092 N   0  0  0  0  0  0
   -2.8050   -2.0087   -0.0667 H   0  0  0  0  0  0
   -0.3104   -2.2141   -0.1100 H   0  0  0  0  0  0
   -0.1058    2.0732    0.0662 H   0  0  0  0  0  0
   -3.8186    0.2648    0.0514 H   0  0  0  0  0  0
    1.6411   -1.8372    1.0345 H   0  0  0  0  0  0
    3.1147   -1.1312    0.5064 H   0  0  0  0  0  0
  1  6  1  0  0  0
  1  2  2  0  0  0
  1 10  1  0  0  0
  2  3  1  0  0  0
  2 11  1  0  0  0
  3  4  2  0  0  0
  3  7  1  0  0  0
  4  5  1  0  0  0
  4 12  1  0  0  0
  5  6  2  0  0  0
  6 13  1  0  0  0
  7  8  2  0  0  0
  7  9  1  0  0  0
  9 14  1  0  0  0
  9 15  1  0  0  0
M  END
>  <i_m_Spin_multiplicity> (1)
1

>  <s_j_Task> (1)
Single Point

>  <s_j_QM_Method> (1)
DFT(b3lyp-d3)

>  <s_j_QM_Basis> (1)
cc-pvtz(-f)

>  <i_j_Number_of_canonical_orbitals> (1)
257

>  <i_j_Geometry_convergence_category> (1)
3

>  <r_j_Gas_Phase_Energy> (1)
-417.136039495024

>  <r_j_Final_Energy> (1)
-417.136039495024

>  <r_j_HOMO> (1)
-0.262320338590544

>  <r_j_LUMO> (1)
-0.0636598980808723

>  <r_j_Polarizability> (1)
81.4442259068458

>  <r_j_QM_Dipole_(debye)> (1)
4.92393854855516

>  <r_j_QM_Dipole_X_(debye)> (1)
-0.458458738330943

>  <r_j_QM_Dipole_Y_(debye)> (1)
-4.59579893088448

>  <r_j_QM_Dipole_Z_(debye)> (1)
1.70693251245518

>  <r_j_Lowest_Frequency_(cm-1)> (1)
92.8742256271101

>  <r_j_Highest_Frequency_(cm-1)> (1)
3652.94991610527

>  <r_j_2nd_Lowest_Frequency_(cm-1)> (1)
170.058201650144

>  <i_j_Num_Negative_Frequencies> (1)
0

>  <r_j_Zero_Point_Energy_(kcal/mol)> (1)
72.3282030780909

>  <r_j_Entropy_(cal/mol/K)_298.15K_1.00E+00atm> (1)
83.9395305314873

>  <r_j_Enthalpy_(kcal/mol)_298.15K_1.00E+00atm> (1)
5.099128410298

>  <r_j_Free_Energy_(kcal/mol)_298.15K_1.00E+00atm> (1)
-19.9274426176649

>  <r_j_Internal_Energy_(kcal/mol)_298.15K_1.00E+00atm> (1)
4.50664282147072

>  <r_j_Heat_Capacity_(cal/mol/K)_298.15K_1.00E+00atm> (1)
27.7410726977763

>  <r_j_ln(Q)_298.15K_1.00E+00atm> (1)
33.6336326038038

>  <r_j_Total_Internal_Energy_(au)_298.15K_1.00E+00atm> (1)
-417.013595373345

>  <r_j_Total_Enthalpy_(au)_298.15K_1.00E+00atm> (1)
-417.012651187453

>  <r_j_Total_Free_Energy_(au)_298.15K_1.00E+00atm> (1)
-417.052533567281

>  <r_lp_tautomer_probability> (1)
1

>  <r_epik_Ionization_Penalty> (1)
  0.0002

>  <r_epik_Ionization_Penalty_Charging> (1)
  0.0000

>  <r_epik_Ionization_Penalty_Neutral> (1)
  0.0002

>  <r_epik_State_Penalty> (1)
  0.0000

>  <r_epik_Charging_Adjusted_Penalty> (1)
0

>  <i_epik_Tot_Q> (1)
0

>  <i_epik_Tot_abs_Q> (1)
0

>  <s_lp_Force_Field> (1)
S-OPLS

>  <r_lp_Energy> (1)
11.5289

>  <b_lp_Chiralities_Consistent> (1)
1

$$$$
