94213_5-methylundecane
                    3D
 Schrodinger Suite 2021-3.
 38 37  0  0  1  0            999 V2000
   -4.8344    4.3124   -0.1308 C   0  0  0  0  0  0
   -4.2443    2.8995   -0.0958 C   0  0  0  0  0  0
   -2.7123    2.8896   -0.0340 C   0  0  0  0  0  0
   -2.1130    1.4793   -0.0065 C   0  0  0  0  0  0
   -0.5811    1.4676    0.0625 C   0  0  0  0  0  0
    0.0033    0.0495    0.0864 C   0  0  0  0  0  0
    1.5426   -0.0378    0.0495 C   0  0  0  0  0  0
    1.9768   -1.4997   -0.1389 C   0  0  0  0  0  0
    2.1806    0.5924    1.3031 C   0  0  0  0  0  0
    3.7146    0.6185    1.3146 C   0  0  0  0  0  0
    4.2884    1.3874    2.5111 C   0  0  0  0  0  0
    5.8196    1.3962    2.5393 C   0  0  0  0  0  0
   -5.9284    4.2916   -0.1732 H   0  0  0  0  0  0
   -4.4770    4.8669   -1.0061 H   0  0  0  0  0  0
   -4.5457    4.8822    0.7599 H   0  0  0  0  0  0
   -4.6438    2.3547    0.7705 H   0  0  0  0  0  0
   -4.5735    2.3410   -0.9827 H   0  0  0  0  0  0
   -2.3107    3.4391   -0.8976 H   0  0  0  0  0  0
   -2.3818    3.4440    0.8563 H   0  0  0  0  0  0
   -2.5184    0.9291    0.8549 H   0  0  0  0  0  0
   -2.4421    0.9275   -0.8986 H   0  0  0  0  0  0
   -0.1734    2.0134   -0.8006 H   0  0  0  0  0  0
   -0.2639    2.0255    0.9525 H   0  0  0  0  0  0
   -0.3617   -0.4802    0.9792 H   0  0  0  0  0  0
   -0.3966   -0.5042   -0.7745 H   0  0  0  0  0  0
    1.8885    0.5344   -0.8259 H   0  0  0  0  0  0
    1.6935   -2.1023    0.7332 H   0  0  0  0  0  0
    3.0582   -1.5946   -0.2722 H   0  0  0  0  0  0
    1.4961   -1.9422   -1.0180 H   0  0  0  0  0  0
    1.8219    1.6237    1.4088 H   0  0  0  0  0  0
    1.8201    0.0534    2.1923 H   0  0  0  0  0  0
    4.1117   -0.4044    1.3286 H   0  0  0  0  0  0
    4.0789    1.0740    0.3822 H   0  0  0  0  0  0
    3.9143    2.4201    2.4911 H   0  0  0  0  0  0
    3.9058    0.9450    3.4411 H   0  0  0  0  0  0
    6.2040    1.9537    3.3997 H   0  0  0  0  0  0
    6.2276    1.8582    1.6329 H   0  0  0  0  0  0
    6.2185    0.3769    2.5971 H   0  0  0  0  0  0
  1  2  1  0  0  0
  1 13  1  0  0  0
  1 14  1  0  0  0
  1 15  1  0  0  0
  2  3  1  0  0  0
  2 16  1  0  0  0
  2 17  1  0  0  0
  3  4  1  0  0  0
  3 18  1  0  0  0
  3 19  1  0  0  0
  4  5  1  0  0  0
  4 20  1  0  0  0
  4 21  1  0  0  0
  5  6  1  0  0  0
  5 22  1  0  0  0
  5 23  1  0  0  0
  6  7  1  0  0  0
  6 24  1  0  0  0
  6 25  1  0  0  0
  7  8  1  0  0  0
  7  9  1  0  0  0
  7 26  1  0  0  0
  8 27  1  0  0  0
  8 28  1  0  0  0
  8 29  1  0  0  0
  9 10  1  0  0  0
  9 30  1  0  0  0
  9 31  1  0  0  0
 10 11  1  0  0  0
 10 32  1  0  0  0
 10 33  1  0  0  0
 11 12  1  0  0  0
 11 34  1  0  0  0
 11 35  1  0  0  0
 12 36  1  0  0  0
 12 37  1  0  0  0
 12 38  1  0  0  0
M  END
>  <i_m_Spin_multiplicity> (1)
1

>  <s_j_Task> (1)
Single Point

>  <s_j_QM_Method> (1)
DFT(b3lyp-d3)

>  <s_j_QM_Basis> (1)
cc-pvtz(-f)

>  <i_j_Number_of_canonical_orbitals> (1)
506

>  <i_j_Geometry_convergence_category> (1)
0

>  <r_j_Gas_Phase_Energy> (1)
-473.158320921684

>  <r_j_Final_Energy> (1)
-473.158320921684

>  <r_j_HOMO> (1)
-0.291428641641413

>  <r_j_LUMO> (1)
0.0298727648686311

>  <r_j_Polarizability> (1)
149.57622384382

>  <r_j_QM_Dipole_(debye)> (1)
0.0562671718256762

>  <r_j_QM_Dipole_X_(debye)> (1)
-0.0356492211915849

>  <r_j_QM_Dipole_Y_(debye)> (1)
0.0375717041898164

>  <r_j_QM_Dipole_Z_(debye)> (1)
-0.0219885128639149

>  <r_j_Lowest_Frequency_(cm-1)> (1)
51.5692045662128

>  <r_j_Highest_Frequency_(cm-1)> (1)
3056.73786079204

>  <r_j_2nd_Lowest_Frequency_(cm-1)> (1)
78.8035763194343

>  <i_j_Num_Negative_Frequencies> (1)
0

>  <r_j_Zero_Point_Energy_(kcal/mol)> (1)
225.378911825965

>  <r_j_Entropy_(cal/mol/K)_298.15K_1.00E+00atm> (1)
120.874088501282

>  <r_j_Enthalpy_(kcal/mol)_298.15K_1.00E+00atm> (1)
10.1355567693509

>  <r_j_Free_Energy_(kcal/mol)_298.15K_1.00E+00atm> (1)
-25.9030527173063

>  <r_j_Internal_Energy_(kcal/mol)_298.15K_1.00E+00atm> (1)
9.54307118052362

>  <r_j_Heat_Capacity_(cal/mol/K)_298.15K_1.00E+00atm> (1)
57.7255826317229

>  <r_j_ln(Q)_298.15K_1.00E+00atm> (1)
43.7192958035942

>  <r_j_Total_Internal_Energy_(au)_298.15K_1.00E+00atm> (1)
-472.783948909408

>  <r_j_Total_Enthalpy_(au)_298.15K_1.00E+00atm> (1)
-472.783004723516

>  <r_j_Total_Free_Energy_(au)_298.15K_1.00E+00atm> (1)
-472.840435903776

>  <r_lp_tautomer_probability> (1)
1

>  <r_epik_Ionization_Penalty> (1)
  0.0000

>  <r_epik_Ionization_Penalty_Charging> (1)
  0.0000

>  <r_epik_Ionization_Penalty_Neutral> (1)
  0.0000

>  <r_epik_State_Penalty> (1)
  0.0000

>  <r_epik_Charging_Adjusted_Penalty> (1)
0

>  <i_epik_Tot_Q> (1)
0

>  <i_epik_Tot_abs_Q> (1)
0

>  <s_lp_Force_Field> (1)
S-OPLS

>  <r_lp_Energy> (1)
6.29701

>  <b_lp_Chiralities_Consistent> (1)
1

$$$$
