94249_2-methyldecalin
                    3D
 Schrodinger Suite 2021-3.
 31 32  0  0  1  0            999 V2000
   -0.0526   -0.1708   -0.0175 C   0  0  0  0  0  0
    1.4751   -0.0013   -0.0054 C   0  0  0  0  0  0
    1.9927    0.7264   -1.2651 C   0  0  0  0  0  0
    1.6580    2.2261   -1.2618 C   0  0  0  0  0  0
    2.1758    2.9243    0.0055 C   0  0  0  0  0  0
    1.8481    4.4258    0.0205 C   0  0  0  0  0  0
    2.3689    5.1140    1.2908 C   0  0  0  0  0  0
    1.8375    4.4216    2.5550 C   0  0  0  0  0  0
    2.1634    2.9209    2.5442 C   0  0  0  0  0  0
    1.6375    2.2286    1.2760 C   0  0  0  0  0  0
    1.9740    0.7279    1.2603 C   0  0  0  0  0  0
   -0.5769    0.7896   -0.0320 H   0  0  0  0  0  0
   -0.3917   -0.7158    0.8705 H   0  0  0  0  0  0
   -0.3750   -0.7336   -0.9004 H   0  0  0  0  0  0
    1.9094   -1.0106   -0.0006 H   0  0  0  0  0  0
    3.0846    0.6121   -1.3130 H   0  0  0  0  0  0
    1.5897    0.2483   -2.1668 H   0  0  0  0  0  0
    2.0850    2.7064   -2.1515 H   0  0  0  0  0  0
    0.5709    2.3703   -1.3302 H   0  0  0  0  0  0
    3.2745    2.8192    0.0214 H   0  0  0  0  0  0
    2.2643    4.9071   -0.8738 H   0  0  0  0  0  0
    0.7566    4.5506   -0.0388 H   0  0  0  0  0  0
    3.4676    5.0768    1.2953 H   0  0  0  0  0  0
    2.0922    6.1751    1.2906 H   0  0  0  0  0  0
    2.2512    4.8953    3.4533 H   0  0  0  0  0  0
    0.7471    4.5528    2.6057 H   0  0  0  0  0  0
    3.2541    2.7858    2.5962 H   0  0  0  0  0  0
    1.7476    2.4325    3.4348 H   0  0  0  0  0  0
    0.5417    2.3422    1.2702 H   0  0  0  0  0  0
    1.5635    0.2450    2.1572 H   0  0  0  0  0  0
    3.0666    0.6200    1.3236 H   0  0  0  0  0  0
  1  2  1  0  0  0
  1 12  1  0  0  0
  1 13  1  0  0  0
  1 14  1  0  0  0
  2 11  1  0  0  0
  2  3  1  0  0  0
  2 15  1  0  0  0
  3  4  1  0  0  0
  3 16  1  0  0  0
  3 17  1  0  0  0
  4  5  1  0  0  0
  4 18  1  0  0  0
  4 19  1  0  0  0
  5 10  1  0  0  0
  5  6  1  0  0  0
  5 20  1  0  0  0
  6  7  1  0  0  0
  6 21  1  0  0  0
  6 22  1  0  0  0
  7  8  1  0  0  0
  7 23  1  0  0  0
  7 24  1  0  0  0
  8  9  1  0  0  0
  8 25  1  0  0  0
  8 26  1  0  0  0
  9 10  1  0  0  0
  9 27  1  0  0  0
  9 28  1  0  0  0
 10 11  1  0  0  0
 10 29  1  0  0  0
 11 30  1  0  0  0
 11 31  1  0  0  0
M  END
>  <i_m_Spin_multiplicity> (1)
1

>  <s_j_Task> (1)
Single Point

>  <s_j_QM_Method> (1)
DFT(b3lyp-d3)

>  <s_j_QM_Basis> (1)
cc-pvtz(-f)

>  <i_j_Number_of_canonical_orbitals> (1)
428

>  <i_j_Geometry_convergence_category> (1)
0

>  <r_j_Gas_Phase_Energy> (1)
-431.414927485209

>  <r_j_Final_Energy> (1)
-431.414927485209

>  <r_j_HOMO> (1)
-0.268456559130957

>  <r_j_LUMO> (1)
0.0338086022290178

>  <r_j_Polarizability> (1)
124.006765029774

>  <r_j_QM_Dipole_(debye)> (1)
0.0612250927490888

>  <r_j_QM_Dipole_X_(debye)> (1)
0.0563095983091221

>  <r_j_QM_Dipole_Y_(debye)> (1)
-0.023373640687435

>  <r_j_QM_Dipole_Z_(debye)> (1)
-0.00560482304935006

>  <r_j_Lowest_Frequency_(cm-1)> (1)
121.864601548962

>  <r_j_Highest_Frequency_(cm-1)> (1)
3053.26532956797

>  <r_j_2nd_Lowest_Frequency_(cm-1)> (1)
143.389578376738

>  <i_j_Num_Negative_Frequencies> (1)
0

>  <r_j_Zero_Point_Energy_(kcal/mol)> (1)
182.712257528179

>  <r_j_Entropy_(cal/mol/K)_298.15K_1.00E+00atm> (1)
94.5371990836984

>  <r_j_Enthalpy_(kcal/mol)_298.15K_1.00E+00atm> (1)
6.77261488480413

>  <r_j_Free_Energy_(kcal/mol)_298.15K_1.00E+00atm> (1)
-21.4136510220005

>  <r_j_Internal_Energy_(kcal/mol)_298.15K_1.00E+00atm> (1)
6.18012929597686

>  <r_j_Heat_Capacity_(cal/mol/K)_298.15K_1.00E+00atm> (1)
42.3708841344466

>  <r_j_ln(Q)_298.15K_1.00E+00atm> (1)
36.1420622303831

>  <r_j_Total_Internal_Energy_(au)_298.15K_1.00E+00atm> (1)
-431.113908304057

>  <r_j_Total_Enthalpy_(au)_298.15K_1.00E+00atm> (1)
-431.112964118165

>  <r_j_Total_Free_Energy_(au)_298.15K_1.00E+00atm> (1)
-431.157881792327

>  <r_lp_tautomer_probability> (1)
1

>  <r_epik_Ionization_Penalty> (1)
  0.0000

>  <r_epik_Ionization_Penalty_Charging> (1)
  0.0000

>  <r_epik_Ionization_Penalty_Neutral> (1)
  0.0000

>  <r_epik_State_Penalty> (1)
  0.0000

>  <r_epik_Charging_Adjusted_Penalty> (1)
0

>  <i_epik_Tot_Q> (1)
0

>  <i_epik_Tot_abs_Q> (1)
0

>  <s_lp_Force_Field> (1)
S-OPLS

>  <r_lp_Energy> (1)
13.9393

>  <b_lp_Chiralities_Consistent> (1)
1

$$$$
