94277_1,2,3,4-tetramethylcyclohexane
                    3D
 Schrodinger Suite 2021-3.
 30 30  0  0  1  0            999 V2000
   -0.0507   -0.0907   -0.0653 C   0  0  0  0  0  0
    1.4812   -0.0099    0.0025 C   0  0  0  0  0  0
    2.0228    0.6761   -1.2646 C   0  0  0  0  0  0
    3.5503    0.7880   -1.2576 C   0  0  0  0  0  0
    4.0693    1.5210   -0.0079 C   0  0  0  0  0  0
    3.5444    0.8156    1.2712 C   0  0  0  0  0  0
    1.9957    0.6928    1.2877 C   0  0  0  0  0  0
    1.5064   -0.0220    2.5575 C   0  0  0  0  0  0
    4.1055    1.4756    2.5415 C   0  0  0  0  0  0
    3.7571    3.0269   -0.0561 C   0  0  0  0  0  0
   -0.4961    0.9083    0.0213 H   0  0  0  0  0  0
   -0.4751   -0.7159    0.7244 H   0  0  0  0  0  0
   -0.3716   -0.5128   -1.0238 H   0  0  0  0  0  0
    1.8779   -1.0386    0.0176 H   0  0  0  0  0  0
    1.6926    0.1188   -2.1502 H   0  0  0  0  0  0
    1.5719    1.6746   -1.3497 H   0  0  0  0  0  0
    3.9789   -0.2237   -1.2790 H   0  0  0  0  0  0
    3.9011    1.2948   -2.1654 H   0  0  0  0  0  0
    5.1646    1.4242    0.0042 H   0  0  0  0  0  0
    3.9372   -0.2136    1.2353 H   0  0  0  0  0  0
    1.5750    1.7108    1.2961 H   0  0  0  0  0  0
    1.9106   -1.0411    2.6088 H   0  0  0  0  0  0
    0.4165   -0.0937    2.5879 H   0  0  0  0  0  0
    1.8153    0.5052    3.4634 H   0  0  0  0  0  0
    3.5884    2.4148    2.7683 H   0  0  0  0  0  0
    5.1701    1.7045    2.4198 H   0  0  0  0  0  0
    4.0095    0.8270    3.4160 H   0  0  0  0  0  0
    2.6830    3.2313   -0.0168 H   0  0  0  0  0  0
    4.1401    3.4646   -0.9844 H   0  0  0  0  0  0
    4.2233    3.5610    0.7767 H   0  0  0  0  0  0
  1  2  1  0  0  0
  1 11  1  0  0  0
  1 12  1  0  0  0
  1 13  1  0  0  0
  2  7  1  0  0  0
  2  3  1  0  0  0
  2 14  1  0  0  0
  3  4  1  0  0  0
  3 15  1  0  0  0
  3 16  1  0  0  0
  4  5  1  0  0  0
  4 17  1  0  0  0
  4 18  1  0  0  0
  5  6  1  0  0  0
  5 10  1  0  0  0
  5 19  1  0  0  0
  6  7  1  0  0  0
  6  9  1  0  0  0
  6 20  1  0  0  0
  7  8  1  0  0  0
  7 21  1  0  0  0
  8 22  1  0  0  0
  8 23  1  0  0  0
  8 24  1  0  0  0
  9 25  1  0  0  0
  9 26  1  0  0  0
  9 27  1  0  0  0
 10 28  1  0  0  0
 10 29  1  0  0  0
 10 30  1  0  0  0
M  END
>  <i_m_Spin_multiplicity> (1)
1

>  <s_j_Task> (1)
Single Point

>  <s_j_QM_Method> (1)
DFT(b3lyp-d3)

>  <s_j_QM_Basis> (1)
cc-pvtz(-f)

>  <i_j_Number_of_canonical_orbitals> (1)
406

>  <i_j_Geometry_convergence_category> (1)
0

>  <r_j_Gas_Phase_Energy> (1)
-393.291160255905

>  <r_j_Final_Energy> (1)
-393.291160255905

>  <r_j_HOMO> (1)
-0.283686689108275

>  <r_j_LUMO> (1)
0.0275286508506728

>  <r_j_Polarizability> (1)
116.261869101577

>  <r_j_QM_Dipole_(debye)> (1)
0.133621598401779

>  <r_j_QM_Dipole_X_(debye)> (1)
0.108390034233205

>  <r_j_QM_Dipole_Y_(debye)> (1)
-0.0642515749373864

>  <r_j_QM_Dipole_Z_(debye)> (1)
-0.0444754669052091

>  <r_j_Lowest_Frequency_(cm-1)> (1)
103.982282616247

>  <r_j_Highest_Frequency_(cm-1)> (1)
3072.5640447696

>  <r_j_2nd_Lowest_Frequency_(cm-1)> (1)
131.788166518812

>  <i_j_Num_Negative_Frequencies> (1)
0

>  <r_j_Zero_Point_Energy_(kcal/mol)> (1)
176.948619792022

>  <r_j_Entropy_(cal/mol/K)_298.15K_1.00E+00atm> (1)
96.966419862616

>  <r_j_Enthalpy_(kcal/mol)_298.15K_1.00E+00atm> (1)
7.26793025874528

>  <r_j_Free_Energy_(kcal/mol)_298.15K_1.00E+00atm> (1)
-21.6426078232937

>  <r_j_Internal_Energy_(kcal/mol)_298.15K_1.00E+00atm> (1)
6.675444669918

>  <r_j_Heat_Capacity_(cal/mol/K)_298.15K_1.00E+00atm> (1)
44.0336241934094

>  <r_j_ln(Q)_298.15K_1.00E+00atm> (1)
36.5284966105785

>  <r_j_Total_Internal_Energy_(au)_298.15K_1.00E+00atm> (1)
-392.998536680899

>  <r_j_Total_Enthalpy_(au)_298.15K_1.00E+00atm> (1)
-392.997592495006

>  <r_j_Total_Free_Energy_(au)_298.15K_1.00E+00atm> (1)
-393.043664370355

>  <r_lp_tautomer_probability> (1)
1

>  <r_epik_Ionization_Penalty> (1)
  0.0000

>  <r_epik_Ionization_Penalty_Charging> (1)
  0.0000

>  <r_epik_Ionization_Penalty_Neutral> (1)
  0.0000

>  <r_epik_State_Penalty> (1)
  0.0000

>  <r_epik_Charging_Adjusted_Penalty> (1)
0

>  <i_epik_Tot_Q> (1)
0

>  <i_epik_Tot_abs_Q> (1)
0

>  <s_lp_Force_Field> (1)
S-OPLS

>  <r_lp_Energy> (1)
19.3219

>  <b_lp_Chiralities_Consistent> (1)
1

$$$$
