94282_Trans-2-decenoic acid
                    3D
 Schrodinger Suite 2021-3.
 29 28  0  0  1  0            999 V2000
   -2.6071    3.1272   -0.0822 C   0  0  0  0  0  0
   -2.1230    1.6768   -0.1751 C   0  0  0  0  0  0
   -0.6091    1.5319    0.0193 C   0  0  0  0  0  0
   -0.1154    0.0835   -0.0707 C   0  0  0  0  0  0
    1.3980   -0.0651    0.1226 C   0  0  0  0  0  0
    1.8874   -1.5151    0.0355 C   0  0  0  0  0  0
    3.4069   -1.6692    0.2357 C   0  0  0  0  0  0
    3.8699   -3.0955    0.1092 C   0  0  0  0  0  0
    4.3961   -3.8403    1.0852 C   0  0  0  0  0  0
    4.8226   -5.3142    0.9097 C   0  0  0  0  0  0
    5.2810   -5.8425    1.9566 O   0  0  0  0  0  0
    4.6614   -5.8035   -0.2385 O   0  5  0  0  0  0
   -3.6908    3.2042   -0.2247 H   0  0  0  0  0  0
   -2.1250    3.7523   -0.8432 H   0  0  0  0  0  0
   -2.3675    3.5598    0.8964 H   0  0  0  0  0  0
   -2.6433    1.0668    0.5761 H   0  0  0  0  0  0
   -2.4034    1.2575   -1.1512 H   0  0  0  0  0  0
   -0.0875    2.1424   -0.7325 H   0  0  0  0  0  0
   -0.3278    1.9526    0.9959 H   0  0  0  0  0  0
   -0.6380   -0.5250    0.6813 H   0  0  0  0  0  0
   -0.3993   -0.3363   -1.0467 H   0  0  0  0  0  0
    1.9210    0.5430   -0.6307 H   0  0  0  0  0  0
    1.6813    0.3565    1.0984 H   0  0  0  0  0  0
    1.3704   -2.1265    0.7871 H   0  0  0  0  0  0
    1.6079   -1.9372   -0.9404 H   0  0  0  0  0  0
    3.9142   -1.0293   -0.5070 H   0  0  0  0  0  0
    3.6798   -1.2709    1.2233 H   0  0  0  0  0  0
    3.7481   -3.5856   -0.8585 H   0  0  0  0  0  0
    4.5444   -3.4175    2.0829 H   0  0  0  0  0  0
  1  2  1  0  0  0
  1 13  1  0  0  0
  1 14  1  0  0  0
  1 15  1  0  0  0
  2  3  1  0  0  0
  2 16  1  0  0  0
  2 17  1  0  0  0
  3  4  1  0  0  0
  3 18  1  0  0  0
  3 19  1  0  0  0
  4  5  1  0  0  0
  4 20  1  0  0  0
  4 21  1  0  0  0
  5  6  1  0  0  0
  5 22  1  0  0  0
  5 23  1  0  0  0
  6  7  1  0  0  0
  6 24  1  0  0  0
  6 25  1  0  0  0
  7  8  1  0  0  0
  7 26  1  0  0  0
  7 27  1  0  0  0
  8  9  2  0  0  0
  8 28  1  0  0  0
  9 10  1  0  0  0
  9 29  1  0  0  0
 10 11  2  0  0  0
 10 12  1  0  0  0
M  END
>  <i_m_Spin_multiplicity> (1)
1

>  <s_j_Task> (1)
Single Point

>  <s_j_QM_Method> (1)
DFT(b3lyp-d3)

>  <s_j_QM_Basis> (1)
cc-pvtz(-f)

>  <i_j_Number_of_canonical_orbitals> (1)
426

>  <i_j_Geometry_convergence_category> (1)
0

>  <r_j_Gas_Phase_Energy> (1)
-542.011560606131

>  <r_j_Final_Energy> (1)
-542.011560606131

>  <r_j_HOMO> (1)
-0.0643800066399844

>  <r_j_LUMO> (1)
0.102506709170045

>  <r_j_Polarizability> (1)
135.499631892534

>  <r_j_QM_Dipole_(debye)> (1)
22.009939267879

>  <r_j_QM_Dipole_X_(debye)> (1)
-12.9948036503377

>  <r_j_QM_Dipole_Y_(debye)> (1)
17.6272361851183

>  <r_j_QM_Dipole_Z_(debye)> (1)
-2.20296371712046

>  <r_j_Lowest_Frequency_(cm-1)> (1)
49.3012022971391

>  <r_j_Highest_Frequency_(cm-1)> (1)
3075.45783378845

>  <r_j_2nd_Lowest_Frequency_(cm-1)> (1)
65.099711583779

>  <i_j_Num_Negative_Frequencies> (1)
0

>  <r_j_Zero_Point_Energy_(kcal/mol)> (1)
158.243975266156

>  <r_j_Entropy_(cal/mol/K)_298.15K_1.00E+00atm> (1)
114.196024003636

>  <r_j_Enthalpy_(kcal/mol)_298.15K_1.00E+00atm> (1)
9.01541423314606

>  <r_j_Free_Energy_(kcal/mol)_298.15K_1.00E+00atm> (1)
-25.0321303235379

>  <r_j_Internal_Energy_(kcal/mol)_298.15K_1.00E+00atm> (1)
8.42292864431878

>  <r_j_Heat_Capacity_(cal/mol/K)_298.15K_1.00E+00atm> (1)
49.3105757971021

>  <r_j_ln(Q)_298.15K_1.00E+00atm> (1)
42.249348837471

>  <r_j_Total_Internal_Energy_(au)_298.15K_1.00E+00atm> (1)
-541.745959986732

>  <r_j_Total_Enthalpy_(au)_298.15K_1.00E+00atm> (1)
-541.74501580084

>  <r_j_Total_Free_Energy_(au)_298.15K_1.00E+00atm> (1)
-541.799274017145

>  <r_epik_Ionization_Penalty> (1)
  0.0030

>  <r_epik_Ionization_Penalty_Charging> (1)
  0.0030

>  <r_epik_Ionization_Penalty_Neutral> (1)
  0.0000

>  <r_epik_State_Penalty> (1)
  0.0021

>  <r_epik_Charging_Adjusted_Penalty> (1)
0.00507066606519717

>  <i_epik_Tot_Q> (1)
-1

>  <i_epik_Tot_abs_Q> (1)
1

>  <s_lp_Force_Field> (1)
S-OPLS

>  <r_lp_Energy> (1)
6.559831

>  <b_lp_Chiralities_Consistent> (1)
1

$$$$
