943_Nitrate
                    3D
 Schrodinger Suite 2021-3.
  4  3  0  0  1  0            999 V2000
    0.6321   -1.0949    0.0000 O   0  5  0  0  0  0
   -1.2643    0.0000    0.0000 O   0  5  0  0  0  0
    0.6321    1.0949    0.0000 O   0  0  0  0  0  0
    0.0000    0.0000    0.0000 N   0  3  1  0  0  0
  1  4  1  0  0  0
  2  4  1  0  0  0
  3  4  2  0  0  0
M  END
>  <i_m_Spin_multiplicity> (1)
1

>  <s_j_Task> (1)
Single Point

>  <s_j_QM_Method> (1)
DFT(b3lyp-d3)

>  <s_j_QM_Basis> (1)
cc-pvtz(-f)

>  <i_j_Number_of_canonical_orbitals> (1)
92

>  <r_j_Gas_Phase_Energy> (1)
-280.452869849028

>  <r_j_Final_Energy> (1)
-280.452869849028

>  <r_j_Polarizability> (1)
21.6191079094421

>  <r_j_QM_Dipole_(debye)> (1)
0.000581133063101002

>  <r_j_QM_Dipole_X_(debye)> (1)
-0.000581101296184314

>  <r_j_QM_Dipole_Y_(debye)> (1)
5.60070462766321e-06

>  <r_j_QM_Dipole_Z_(debye)> (1)
-2.35641883727982e-06

>  <r_j_Zero_Point_Energy_(kcal/mol)> (1)
8.65431773218829

>  <r_j_Entropy_(cal/mol/K)_298.15K_1.00E+00atm> (1)
58.7836044194454

>  <r_j_Enthalpy_(kcal/mol)_298.15K_1.00E+00atm> (1)
2.58096743949601

>  <r_j_Free_Energy_(kcal/mol)_298.15K_1.00E+00atm> (1)
-14.9453642181617

>  <r_j_Internal_Energy_(kcal/mol)_298.15K_1.00E+00atm> (1)
1.98848185066873

>  <r_j_Heat_Capacity_(cal/mol/K)_298.15K_1.00E+00atm> (1)
8.74564336665994

>  <r_j_ln(Q)_298.15K_1.00E+00atm> (1)
25.2248569416574

>  <r_j_Total_Internal_Energy_(au)_298.15K_1.00E+00atm> (1)
-280.435909468202

>  <r_j_Total_Enthalpy_(au)_298.15K_1.00E+00atm> (1)
-280.43496528231

>  <r_j_Total_Free_Energy_(au)_298.15K_1.00E+00atm> (1)
-280.462895269817

>  <r_j_HOMO> (1)
-0.0196823068000647

>  <r_j_LUMO> (1)
0.194209942594824

>  <r_j_Lowest_Frequency_(cm-1)> (1)
702.411546061382

>  <r_j_Highest_Frequency_(cm-1)> (1)
1380.3320250328

>  <r_j_2nd_Lowest_Frequency_(cm-1)> (1)
703.247158017386

>  <i_j_Num_Negative_Frequencies> (1)
0

>  <i_j_Geometry_convergence_category> (1)
0

$$$$
