946_Nitrite
                    3D
 Schrodinger Suite 2021-3.
  3  2  0  0  1  0            999 V2000
    0.0000    1.0768   -0.2059 O   0  5  0  0  0  0
    0.0000   -1.0768   -0.2059 O   0  0  0  0  0  0
    0.0000    0.0000    0.4703 N   0  0  0  0  0  0
  1  3  1  0  0  0
  2  3  2  0  0  0
M  END
>  <i_m_Spin_multiplicity> (1)
1

>  <s_j_Task> (1)
Single Point

>  <s_j_QM_Method> (1)
DFT(b3lyp-d3)

>  <s_j_QM_Basis> (1)
cc-pvtz(-f)

>  <i_j_Number_of_canonical_orbitals> (1)
69

>  <r_j_Gas_Phase_Energy> (1)
-205.210850134698

>  <r_j_Final_Energy> (1)
-205.210850134698

>  <r_j_Polarizability> (1)
16.5857164798645

>  <r_j_QM_Dipole_(debye)> (1)
0.303997665597136

>  <r_j_QM_Dipole_X_(debye)> (1)
9.25779636403254e-07

>  <r_j_QM_Dipole_Y_(debye)> (1)
2.20543013856782e-05

>  <r_j_QM_Dipole_Z_(debye)> (1)
0.303997664795733

>  <r_j_Zero_Point_Energy_(kcal/mol)> (1)
4.78054727449829

>  <r_j_Entropy_(cal/mol/K)_298.15K_1.00E+00atm> (1)
56.6759775079792

>  <r_j_Enthalpy_(kcal/mol)_298.15K_1.00E+00atm> (1)
2.43656256611525

>  <r_j_Free_Energy_(kcal/mol)_298.15K_1.00E+00atm> (1)
-14.4613801278888

>  <r_j_Internal_Energy_(kcal/mol)_298.15K_1.00E+00atm> (1)
1.84407697728797

>  <r_j_Heat_Capacity_(cal/mol/K)_298.15K_1.00E+00atm> (1)
6.95055068793673

>  <r_j_ln(Q)_298.15K_1.00E+00atm> (1)
24.4079862879241

>  <r_j_Total_Internal_Energy_(au)_298.15K_1.00E+00atm> (1)
-205.200293123898

>  <r_j_Total_Enthalpy_(au)_298.15K_1.00E+00atm> (1)
-205.199348938005

>  <r_j_Total_Free_Energy_(au)_298.15K_1.00E+00atm> (1)
-205.22627752395

>  <r_j_HOMO> (1)
0.0309681574522497

>  <r_j_LUMO> (1)
0.217217350192111

>  <r_j_Lowest_Frequency_(cm-1)> (1)
790.213762821251

>  <r_j_Highest_Frequency_(cm-1)> (1)
1316.76409023131

>  <r_j_2nd_Lowest_Frequency_(cm-1)> (1)
1237.06363100158

>  <i_j_Num_Negative_Frequencies> (1)
0

>  <i_j_Geometry_convergence_category> (1)
0

$$$$
