949_N,N-Dimethylaniline
                    3D
 Schrodinger Suite 2021-3.
 20 20  0  0  1  0            999 V2000
    0.0239   -0.0183   -0.0015 C   0  0  0  0  0  0
    1.4660    0.0108    0.0001 N   0  0  0  0  0  0
    2.1622   -1.2525    0.0015 C   0  0  0  0  0  0
    2.1761    1.2408    0.0000 C   0  0  0  0  0  0
    2.5347    1.8592    1.2064 C   0  0  0  0  0  0
    3.2324    3.0675    1.2073 C   0  0  0  0  0  0
    3.5812    3.6746   -0.0004 C   0  0  0  0  0  0
    3.2298    3.0687   -1.2079 C   0  0  0  0  0  0
    2.5322    1.8603   -1.2066 C   0  0  0  0  0  0
   -0.3652    1.0028   -0.0025 H   0  0  0  0  0  0
   -0.3835   -0.5330    0.8860 H   0  0  0  0  0  0
   -0.3816   -0.5340   -0.8893 H   0  0  0  0  0  0
    3.2410   -1.0783    0.0027 H   0  0  0  0  0  0
    1.9207   -1.8624   -0.8863 H   0  0  0  0  0  0
    1.9184   -1.8617    0.8890 H   0  0  0  0  0  0
    2.2578    1.3776    2.1399 H   0  0  0  0  0  0
    3.5041    3.5358    2.1494 H   0  0  0  0  0  0
    4.1243    4.6155   -0.0005 H   0  0  0  0  0  0
    3.4993    3.5379   -2.1501 H   0  0  0  0  0  0
    2.2536    1.3795   -2.1399 H   0  0  0  0  0  0
  1  2  1  0  0  0
  1 10  1  0  0  0
  1 11  1  0  0  0
  1 12  1  0  0  0
  2  3  1  0  0  0
  2  4  1  0  0  0
  3 13  1  0  0  0
  3 14  1  0  0  0
  3 15  1  0  0  0
  4  9  1  0  0  0
  4  5  2  0  0  0
  5  6  1  0  0  0
  5 16  1  0  0  0
  6  7  2  0  0  0
  6 17  1  0  0  0
  7  8  1  0  0  0
  7 18  1  0  0  0
  8  9  2  0  0  0
  8 19  1  0  0  0
  9 20  1  0  0  0
M  END
>  <i_m_Spin_multiplicity> (1)
1

>  <s_j_Task> (1)
Single Point

>  <s_j_QM_Method> (1)
DFT(b3lyp-d3)

>  <s_j_QM_Basis> (1)
cc-pvtz(-f)

>  <i_j_Number_of_canonical_orbitals> (1)
301

>  <i_j_Geometry_convergence_category> (1)
0

>  <r_j_Gas_Phase_Energy> (1)
-366.332788024328

>  <r_j_Final_Energy> (1)
-366.332788024328

>  <r_j_HOMO> (1)
-0.196084171838719

>  <r_j_LUMO> (1)
-0.00107953185089805

>  <r_j_Polarizability> (1)
99.044033144017

>  <r_j_QM_Dipole_(debye)> (1)
0.022899521943226

>  <r_j_QM_Dipole_X_(debye)> (1)
0.0115576888840264

>  <r_j_QM_Dipole_Y_(debye)> (1)
0.0197684101136541

>  <r_j_QM_Dipole_Z_(debye)> (1)
-0.0001337702011602

>  <r_j_Lowest_Frequency_(cm-1)> (1)
-191.933011371835

>  <r_j_Highest_Frequency_(cm-1)> (1)
3147.10114802395

>  <r_j_2nd_Lowest_Frequency_(cm-1)> (1)
-66.5107242993633

>  <i_j_Num_Negative_Frequencies> (1)
2

>  <r_j_Zero_Point_Energy_(kcal/mol)> (1)
107.099151883574

>  <r_j_Entropy_(cal/mol/K)_298.15K_1.00E+00atm> (1)
83.7298102016966

>  <r_j_Enthalpy_(kcal/mol)_298.15K_1.00E+00atm> (1)
5.13508531724001

>  <r_j_Free_Energy_(kcal/mol)_298.15K_1.00E+00atm> (1)
-19.8289575943958

>  <r_j_Internal_Energy_(kcal/mol)_298.15K_1.00E+00atm> (1)
4.54259972841273

>  <r_j_Heat_Capacity_(cal/mol/K)_298.15K_1.00E+00atm> (1)
28.800977486742

>  <r_j_ln(Q)_298.15K_1.00E+00atm> (1)
33.4674091122519

>  <r_j_Total_Internal_Energy_(au)_298.15K_1.00E+00atm> (1)
-366.154875567307

>  <r_j_Total_Enthalpy_(au)_298.15K_1.00E+00atm> (1)
-366.153931381414

>  <r_j_Total_Free_Energy_(au)_298.15K_1.00E+00atm> (1)
-366.193714116345

>  <r_epik_Ionization_Penalty> (1)
  0.0068

>  <r_epik_Ionization_Penalty_Charging> (1)
  0.0000

>  <r_epik_Ionization_Penalty_Neutral> (1)
  0.0068

>  <r_epik_State_Penalty> (1)
  0.0050

>  <r_epik_Charging_Adjusted_Penalty> (1)
0.00501997

>  <i_epik_Tot_Q> (1)
0

>  <i_epik_Tot_abs_Q> (1)
0

>  <s_lp_Force_Field> (1)
S-OPLS

>  <r_lp_Energy> (1)
34.4481

>  <b_lp_Chiralities_Consistent> (1)
1

$$$$
