95717_9,10-dihydrobenzo(a)pyrene-7(8H)-one
                    3D
 Schrodinger Suite 2021-3.
 35 39  0  0  1  0            999 V2000
    0.2760   -3.7478   -2.3804 C   0  0  0  0  0  0
    1.1126   -2.5802   -1.8447 C   0  0  0  0  0  0
    0.2633   -1.4959   -1.2083 C   0  0  0  0  0  0
   -1.0978   -1.3722   -1.5543 C   0  0  0  0  0  0
   -1.9078   -0.4020   -0.9549 C   0  0  0  0  0  0
   -1.3998    0.4835   -0.0070 C   0  0  0  0  0  0
   -2.2222    1.4811    0.6221 C   0  0  0  0  0  0
   -1.7078    2.3436    1.5373 C   0  0  0  0  0  0
   -0.3196    2.2923    1.9075 C   0  0  0  0  0  0
    0.5218    1.3110    1.2970 C   0  0  0  0  0  0
   -0.0161    0.3986    0.3399 C   0  0  0  0  0  0
    0.8170   -0.5911   -0.2690 C   0  0  0  0  0  0
    2.2077   -0.6136    0.1041 C   0  0  0  0  0  0
    2.7217    0.2597    1.0130 C   0  0  0  0  0  0
    1.9027    1.2502    1.6483 C   0  0  0  0  0  0
    2.4130    2.1562    2.5927 C   0  0  0  0  0  0
    1.5844    3.1057    3.1834 C   0  0  0  0  0  0
    0.2334    3.1757    2.8465 C   0  0  0  0  0  0
   -1.7326   -2.2420   -2.5953 C   0  0  0  0  0  0
   -2.9164   -2.1391   -2.8821 O   0  0  0  0  0  0
   -0.8306   -3.2364   -3.3049 C   0  0  0  0  0  0
   -0.1736   -4.2868   -1.5369 H   0  0  0  0  0  0
    0.9196   -4.4601   -2.9070 H   0  0  0  0  0  0
    1.8400   -2.9616   -1.1224 H   0  0  0  0  0  0
    1.6996   -2.1444   -2.6677 H   0  0  0  0  0  0
   -2.9497   -0.3546   -1.2547 H   0  0  0  0  0  0
   -3.2717    1.5277    0.3454 H   0  0  0  0  0  0
   -2.3396    3.0924    2.0072 H   0  0  0  0  0  0
    2.8686   -1.3365   -0.3594 H   0  0  0  0  0  0
    3.7765    0.2201    1.2718 H   0  0  0  0  0  0
    3.4656    2.1079    2.8579 H   0  0  0  0  0  0
    1.9932    3.7992    3.9125 H   0  0  0  0  0  0
   -0.4063    3.9209    3.3115 H   0  0  0  0  0  0
   -0.3814   -2.7136   -4.1630 H   0  0  0  0  0  0
   -1.4571   -4.0365   -3.7075 H   0  0  0  0  0  0
  1 21  1  0  0  0
  1  2  1  0  0  0
  1 22  1  0  0  0
  1 23  1  0  0  0
  2  3  1  0  0  0
  2 24  1  0  0  0
  2 25  1  0  0  0
  3 12  1  0  0  0
  3  4  2  0  0  0
  4  5  1  0  0  0
  4 19  1  0  0  0
  5  6  2  0  0  0
  5 26  1  0  0  0
  6 11  1  0  0  0
  6  7  1  0  0  0
  7  8  2  0  0  0
  7 27  1  0  0  0
  8  9  1  0  0  0
  8 28  1  0  0  0
  9 18  1  0  0  0
  9 10  2  0  0  0
 10 15  1  0  0  0
 10 11  1  0  0  0
 11 12  2  0  0  0
 12 13  1  0  0  0
 13 14  2  0  0  0
 13 29  1  0  0  0
 14 15  1  0  0  0
 14 30  1  0  0  0
 15 16  2  0  0  0
 16 17  1  0  0  0
 16 31  1  0  0  0
 17 18  2  0  0  0
 17 32  1  0  0  0
 18 33  1  0  0  0
 19 20  2  0  0  0
 19 21  1  0  0  0
 21 34  1  0  0  0
 21 35  1  0  0  0
M  END
>  <i_m_Spin_multiplicity> (1)
1

>  <s_j_Task> (1)
Single Point

>  <s_j_QM_Method> (1)
DFT(b3lyp-d3)

>  <s_j_QM_Basis> (1)
cc-pvtz(-f)

>  <i_j_Number_of_canonical_orbitals> (1)
590

>  <i_j_Geometry_convergence_category> (1)
0

>  <r_j_Gas_Phase_Energy> (1)
-846.126205054162

>  <r_j_Final_Energy> (1)
-846.126205054162

>  <r_j_HOMO> (1)
-0.209431949282571

>  <r_j_LUMO> (1)
-0.0720400249939903

>  <r_j_Polarizability> (1)
247.896566851147

>  <r_j_QM_Dipole_(debye)> (1)
3.51664879366998

>  <r_j_QM_Dipole_X_(debye)> (1)
3.2973044480733

>  <r_j_QM_Dipole_Y_(debye)> (1)
0.215196122466613

>  <r_j_QM_Dipole_Z_(debye)> (1)
1.20345034945855

>  <r_j_Lowest_Frequency_(cm-1)> (1)
72.9977993262265

>  <r_j_Highest_Frequency_(cm-1)> (1)
3161.13670345856

>  <r_j_2nd_Lowest_Frequency_(cm-1)> (1)
81.3961150488155

>  <i_j_Num_Negative_Frequencies> (1)
0

>  <r_j_Zero_Point_Energy_(kcal/mol)> (1)
175.967159219231

>  <r_j_Entropy_(cal/mol/K)_298.15K_1.00E+00atm> (1)
114.85371904452

>  <r_j_Enthalpy_(kcal/mol)_298.15K_1.00E+00atm> (1)
9.34318052074646

>  <r_j_Free_Energy_(kcal/mol)_298.15K_1.00E+00atm> (1)
-24.9004558123771

>  <r_j_Internal_Energy_(kcal/mol)_298.15K_1.00E+00atm> (1)
8.75069493191919

>  <r_j_Heat_Capacity_(cal/mol/K)_298.15K_1.00E+00atm> (1)
61.0087789228283

>  <r_j_ln(Q)_298.15K_1.00E+00atm> (1)
42.0271079701084

>  <r_j_Total_Internal_Energy_(au)_298.15K_1.00E+00atm> (1)
-845.831838414323

>  <r_j_Total_Enthalpy_(au)_298.15K_1.00E+00atm> (1)
-845.830894228431

>  <r_j_Total_Free_Energy_(au)_298.15K_1.00E+00atm> (1)
-845.885464936875

>  <r_lp_tautomer_probability> (1)
1

>  <r_epik_Ionization_Penalty> (1)
  0.0000

>  <r_epik_Ionization_Penalty_Charging> (1)
  0.0000

>  <r_epik_Ionization_Penalty_Neutral> (1)
  0.0000

>  <r_epik_State_Penalty> (1)
  0.0000

>  <r_epik_Charging_Adjusted_Penalty> (1)
0

>  <i_epik_Tot_Q> (1)
0

>  <i_epik_Tot_abs_Q> (1)
0

>  <s_lp_Force_Field> (1)
S-OPLS

>  <r_lp_Energy> (1)
38.1876

>  <b_lp_Chiralities_Consistent> (1)
1

$$$$
