957_Octanol
                    3D
 Schrodinger Suite 2021-3.
 27 26  0  0  1  0            999 V2000
   -2.6479    2.9398    0.0067 C   0  0  0  0  0  0
   -2.1018    1.5091   -0.0083 C   0  0  0  0  0  0
   -0.5697    1.4502   -0.0020 C   0  0  0  0  0  0
   -0.0147    0.0218   -0.0186 C   0  0  0  0  0  0
    1.5167   -0.0410   -0.0082 C   0  0  0  0  0  0
    2.0631   -1.4722   -0.0220 C   0  0  0  0  0  0
    3.5944   -1.5350   -0.0085 C   0  0  0  0  0  0
    4.1366   -2.9586    0.0184 C   0  0  0  0  0  0
    3.7050   -3.5711    1.2319 O   0  0  0  0  0  0
   -3.7428    2.9541    0.0028 H   0  0  0  0  0  0
   -2.3037    3.5021   -0.8691 H   0  0  0  0  0  0
   -2.3103    3.4810    0.8981 H   0  0  0  0  0  0
   -2.4874    0.9585    0.8607 H   0  0  0  0  0  0
   -2.4798    0.9798   -0.8937 H   0  0  0  0  0  0
   -0.1819    2.0023   -0.8705 H   0  0  0  0  0  0
   -0.1902    1.9785    0.8847 H   0  0  0  0  0  0
   -0.4050   -0.5302    0.8484 H   0  0  0  0  0  0
   -0.3938   -0.5046   -0.9065 H   0  0  0  0  0  0
    1.9093    0.5111   -0.8747 H   0  0  0  0  0  0
    1.8953    0.4839    0.8806 H   0  0  0  0  0  0
    1.6811   -2.0257    0.8435 H   0  0  0  0  0  0
    1.6883   -1.9971   -0.9131 H   0  0  0  0  0  0
    4.0010   -1.0240   -0.8916 H   0  0  0  0  0  0
    3.9800   -1.0036    0.8712 H   0  0  0  0  0  0
    3.7644   -3.5119   -0.8609 H   0  0  0  0  0  0
    5.2368   -2.9404   -0.0478 H   0  0  0  0  0  0
    3.9975   -4.4906    1.2260 H   0  0  0  0  0  0
  1  2  1  0  0  0
  1 10  1  0  0  0
  1 11  1  0  0  0
  1 12  1  0  0  0
  2  3  1  0  0  0
  2 13  1  0  0  0
  2 14  1  0  0  0
  3  4  1  0  0  0
  3 15  1  0  0  0
  3 16  1  0  0  0
  4  5  1  0  0  0
  4 17  1  0  0  0
  4 18  1  0  0  0
  5  6  1  0  0  0
  5 19  1  0  0  0
  5 20  1  0  0  0
  6  7  1  0  0  0
  6 21  1  0  0  0
  6 22  1  0  0  0
  7  8  1  0  0  0
  7 23  1  0  0  0
  7 24  1  0  0  0
  8  9  1  0  0  0
  8 25  1  0  0  0
  8 26  1  0  0  0
  9 27  1  0  0  0
M  END
>  <i_m_Spin_multiplicity> (1)
1

>  <s_j_Task> (1)
Single Point

>  <s_j_QM_Method> (1)
DFT(b3lyp-d3)

>  <s_j_QM_Basis> (1)
cc-pvtz(-f)

>  <i_j_Number_of_canonical_orbitals> (1)
367

>  <i_j_Geometry_convergence_category> (1)
0

>  <r_j_Gas_Phase_Energy> (1)
-391.08260716036

>  <r_j_Final_Energy> (1)
-391.08260716036

>  <r_j_HOMO> (1)
-0.290445460433523

>  <r_j_LUMO> (1)
0.00650912576458628

>  <r_j_Polarizability> (1)
104.516199707681

>  <r_j_QM_Dipole_(debye)> (1)
1.49700430196932

>  <r_j_QM_Dipole_X_(debye)> (1)
0.775270885524437

>  <r_j_QM_Dipole_Y_(debye)> (1)
-0.864833070683624

>  <r_j_QM_Dipole_Z_(debye)> (1)
-0.944479059600974

>  <r_j_Lowest_Frequency_(cm-1)> (1)
62.7353664201805

>  <r_j_Highest_Frequency_(cm-1)> (1)
3778.81709669717

>  <r_j_2nd_Lowest_Frequency_(cm-1)> (1)
88.064111087442

>  <i_j_Num_Negative_Frequencies> (1)
0

>  <r_j_Zero_Point_Energy_(kcal/mol)> (1)
157.362013188316

>  <r_j_Entropy_(cal/mol/K)_298.15K_1.00E+00atm> (1)
102.721652399219

>  <r_j_Enthalpy_(kcal/mol)_298.15K_1.00E+00atm> (1)
7.67851302258045

>  <r_j_Free_Energy_(kcal/mol)_298.15K_1.00E+00atm> (1)
-22.9479476402466

>  <r_j_Internal_Energy_(kcal/mol)_298.15K_1.00E+00atm> (1)
7.08602743375318

>  <r_j_Heat_Capacity_(cal/mol/K)_298.15K_1.00E+00atm> (1)
41.5713410333474

>  <r_j_ln(Q)_298.15K_1.00E+00atm> (1)
38.7316553735394

>  <r_j_Total_Internal_Energy_(au)_298.15K_1.00E+00atm> (1)
-390.820542524711

>  <r_j_Total_Enthalpy_(au)_298.15K_1.00E+00atm> (1)
-390.819598338818

>  <r_j_Total_Free_Energy_(au)_298.15K_1.00E+00atm> (1)
-390.868404710876

>  <r_lp_tautomer_probability> (1)
1

>  <r_epik_Ionization_Penalty> (1)
  0.0000

>  <r_epik_Ionization_Penalty_Charging> (1)
  0.0000

>  <r_epik_Ionization_Penalty_Neutral> (1)
  0.0000

>  <r_epik_State_Penalty> (1)
  0.0000

>  <r_epik_Charging_Adjusted_Penalty> (1)
0

>  <i_epik_Tot_Q> (1)
0

>  <i_epik_Tot_abs_Q> (1)
0

>  <s_lp_Force_Field> (1)
S-OPLS

>  <r_lp_Energy> (1)
3.910682

>  <b_lp_Chiralities_Consistent> (1)
1

$$$$
