965_9-Octadecenoic acid
                    3D
 Schrodinger Suite 2021-3.
 53 52  0  0  1  0            999 V2000
    0.2602    6.8321    4.8427 C   0  0  0  0  0  0
   -1.1702    6.3868    4.5160 C   0  0  0  0  0  0
   -1.3285    5.7524    3.1250 C   0  0  0  0  0  0
   -0.5791    4.4263    2.9386 C   0  0  0  0  0  0
   -0.8387    3.7777    1.5735 C   0  0  0  0  0  0
   -0.1125    2.4412    1.3810 C   0  0  0  0  0  0
   -0.3935    1.7980    0.0172 C   0  0  0  0  0  0
    0.2498    0.4078   -0.1771 C   0  0  0  0  0  0
    1.7551    0.4244   -0.1266 C   0  0  0  0  0  0
    2.5581    0.2476   -1.1792 C   0  0  0  0  0  0
    4.0585    0.3305   -1.1616 C   0  0  0  0  0  0
    4.6040    1.4893   -2.0193 C   0  0  0  0  0  0
    6.1354    1.5491   -2.0458 C   0  0  0  0  0  0
    6.6981    2.7039   -2.8828 C   0  0  0  0  0  0
    8.2315    2.7512   -2.9088 C   0  0  0  0  0  0
    8.8060    3.9081   -3.7350 C   0  0  0  0  0  0
   10.3331    3.9544   -3.7655 C   0  0  0  0  0  0
   10.9375    5.1252   -4.6351 C   0  0  0  0  0  0
   12.1900    5.1968   -4.6051 O   0  0  0  0  0  0
   10.1008    5.8347   -5.2514 O   0  5  0  0  0  0
    0.3081    7.3283    5.8181 H   0  0  0  0  0  0
    0.6318    7.5380    4.0907 H   0  0  0  0  0  0
    0.9531    5.9852    4.8702 H   0  0  0  0  0  0
   -1.5146    5.6734    5.2780 H   0  0  0  0  0  0
   -1.8394    7.2542    4.5874 H   0  0  0  0  0  0
   -2.3970    5.5829    2.9320 H   0  0  0  0  0  0
   -0.9922    6.4681    2.3608 H   0  0  0  0  0  0
    0.5005    4.5840    3.0596 H   0  0  0  0  0  0
   -0.8763    3.7285    3.7355 H   0  0  0  0  0  0
   -1.9204    3.6250    1.4450 H   0  0  0  0  0  0
   -0.5352    4.4729    0.7778 H   0  0  0  0  0  0
    0.9674    2.5975    1.5005 H   0  0  0  0  0  0
   -0.4119    1.7462    2.1797 H   0  0  0  0  0  0
   -1.4808    1.7047   -0.1154 H   0  0  0  0  0  0
   -0.0376    2.4651   -0.7789 H   0  0  0  0  0  0
   -0.1415   -0.2683    0.5983 H   0  0  0  0  0  0
   -0.0772   -0.0013   -1.1413 H   0  0  0  0  0  0
    2.2080    0.6236    0.8457 H   0  0  0  0  0  0
    2.1057    0.0582   -2.1559 H   0  0  0  0  0  0
    4.4150    0.4411   -0.1291 H   0  0  0  0  0  0
    4.4849   -0.6116   -1.5385 H   0  0  0  0  0  0
    4.2235    1.3919   -3.0462 H   0  0  0  0  0  0
    4.2011    2.4362   -1.6354 H   0  0  0  0  0  0
    6.5114    1.6321   -1.0153 H   0  0  0  0  0  0
    6.5271    0.5963   -2.4321 H   0  0  0  0  0  0
    6.3201    2.6256   -3.9127 H   0  0  0  0  0  0
    6.3119    3.6571   -2.4930 H   0  0  0  0  0  0
    8.6047    2.8166   -1.8748 H   0  0  0  0  0  0
    8.6120    1.7952   -3.3010 H   0  0  0  0  0  0
    8.4384    3.8578   -4.7675 H   0  0  0  0  0  0
    8.4310    4.8656   -3.3508 H   0  0  0  0  0  0
   10.7372    4.0466   -2.7462 H   0  0  0  0  0  0
   10.7355    3.0060   -4.1540 H   0  0  0  0  0  0
  1  2  1  0  0  0
  1 21  1  0  0  0
  1 22  1  0  0  0
  1 23  1  0  0  0
  2  3  1  0  0  0
  2 24  1  0  0  0
  2 25  1  0  0  0
  3  4  1  0  0  0
  3 26  1  0  0  0
  3 27  1  0  0  0
  4  5  1  0  0  0
  4 28  1  0  0  0
  4 29  1  0  0  0
  5  6  1  0  0  0
  5 30  1  0  0  0
  5 31  1  0  0  0
  6  7  1  0  0  0
  6 32  1  0  0  0
  6 33  1  0  0  0
  7  8  1  0  0  0
  7 34  1  0  0  0
  7 35  1  0  0  0
  8  9  1  0  0  0
  8 36  1  0  0  0
  8 37  1  0  0  0
  9 10  2  0  0  0
  9 38  1  0  0  0
 10 11  1  0  0  0
 10 39  1  0  0  0
 11 12  1  0  0  0
 11 40  1  0  0  0
 11 41  1  0  0  0
 12 13  1  0  0  0
 12 42  1  0  0  0
 12 43  1  0  0  0
 13 14  1  0  0  0
 13 44  1  0  0  0
 13 45  1  0  0  0
 14 15  1  0  0  0
 14 46  1  0  0  0
 14 47  1  0  0  0
 15 16  1  0  0  0
 15 48  1  0  0  0
 15 49  1  0  0  0
 16 17  1  0  0  0
 16 50  1  0  0  0
 16 51  1  0  0  0
 17 18  1  0  0  0
 17 52  1  0  0  0
 17 53  1  0  0  0
 18 19  2  0  0  0
 18 20  1  0  0  0
M  END
>  <i_m_Spin_multiplicity> (1)
1

>  <s_j_Task> (1)
Single Point

>  <s_j_QM_Method> (1)
DFT(b3lyp-d3)

>  <s_j_QM_Basis> (1)
cc-pvtz(-f)

>  <i_j_Number_of_canonical_orbitals> (1)
751

>  <i_j_Geometry_convergence_category> (1)
3

>  <r_j_Gas_Phase_Energy> (1)
-856.643159517532

>  <r_j_Final_Energy> (1)
-856.643159517532

>  <r_j_HOMO> (1)
0.0211277345062479

>  <r_j_LUMO> (1)
0.073114928768135

>  <r_j_Polarizability> (1)
235.196944654584

>  <r_j_QM_Dipole_(debye)> (1)
37.2294398973055

>  <r_j_QM_Dipole_X_(debye)> (1)
-31.1182763400667

>  <r_j_QM_Dipole_Y_(debye)> (1)
-9.08681724713444

>  <r_j_QM_Dipole_Z_(debye)> (1)
18.3061144158859

>  <r_j_Lowest_Frequency_(cm-1)> (1)
20.0975616376763

>  <r_j_Highest_Frequency_(cm-1)> (1)
3077.48335343785

>  <r_j_2nd_Lowest_Frequency_(cm-1)> (1)
37.4763003662125

>  <i_j_Num_Negative_Frequencies> (1)
0

>  <r_j_Zero_Point_Energy_(kcal/mol)> (1)
301.065571701045

>  <r_j_Entropy_(cal/mol/K)_298.15K_1.00E+00atm> (1)
158.79057927404

>  <r_j_Enthalpy_(kcal/mol)_298.15K_1.00E+00atm> (1)
15.0626197043596

>  <r_j_Free_Energy_(kcal/mol)_298.15K_1.00E+00atm> (1)
-32.2807915061954

>  <r_j_Internal_Energy_(kcal/mol)_298.15K_1.00E+00atm> (1)
14.4701341155323

>  <r_j_Heat_Capacity_(cal/mol/K)_298.15K_1.00E+00atm> (1)
87.3964878935484

>  <r_j_ln(Q)_298.15K_1.00E+00atm> (1)
54.4836737212288

>  <r_j_Total_Internal_Energy_(au)_298.15K_1.00E+00atm> (1)
-856.14032135986

>  <r_j_Total_Enthalpy_(au)_298.15K_1.00E+00atm> (1)
-856.139377173968

>  <r_j_Total_Free_Energy_(au)_298.15K_1.00E+00atm> (1)
-856.214823702624

>  <r_epik_Ionization_Penalty> (1)
  0.0049

>  <r_epik_Ionization_Penalty_Charging> (1)
  0.0049

>  <r_epik_Ionization_Penalty_Neutral> (1)
  0.0000

>  <r_epik_State_Penalty> (1)
  0.0035

>  <r_epik_Charging_Adjusted_Penalty> (1)
0.0083707107128699

>  <i_epik_Tot_Q> (1)
-1

>  <i_epik_Tot_abs_Q> (1)
1

>  <s_lp_Force_Field> (1)
S-OPLS

>  <r_lp_Energy> (1)
5.874709

>  <b_lp_Chiralities_Consistent> (1)
1

$$$$
