97240_3-nitrophenanthrene
                    3D
 Schrodinger Suite 2021-3.
 26 28  0  0  1  0            999 V2000
   -4.3962    4.8491    0.0000 C   0  0  0  0  0  0
   -2.9906    4.9130    0.0001 C   0  0  0  0  0  0
   -2.2364    3.7546    0.0001 C   0  0  0  0  0  0
   -2.8515    2.4818    0.0000 C   0  0  0  0  0  0
   -4.2758    2.4217    0.0000 C   0  0  0  0  0  0
   -5.0250    3.6207   -0.0001 C   0  0  0  0  0  0
   -4.9337    1.1473    0.0000 C   0  0  0  0  0  0
   -4.2287   -0.0158    0.0000 C   0  0  0  0  0  0
   -2.7963   -0.0079    0.0001 C   0  0  0  0  0  0
   -2.0971    1.2372    0.0000 C   0  0  0  0  0  0
   -0.6884    1.2079    0.0000 C   0  0  0  0  0  0
   -0.0197    0.0006    0.0000 C   0  0  0  0  0  0
   -0.6903   -1.2334    0.0001 C   0  0  0  0  0  0
   -2.0667   -1.2219    0.0001 C   0  0  0  0  0  0
    1.4509    0.0086   -0.0001 N   0  3  1  0  0  0
    2.0267   -1.0804   -0.0001 O   0  0  0  0  0  0
    2.0233    1.0998   -0.0002 O   0  5  0  0  0  0
   -4.9814    5.7634    0.0000 H   0  0  0  0  0  0
   -2.4929    5.8779    0.0002 H   0  0  0  0  0  0
   -1.1555    3.8366    0.0002 H   0  0  0  0  0  0
   -6.1099    3.5581   -0.0002 H   0  0  0  0  0  0
   -6.0203    1.1296   -0.0001 H   0  0  0  0  0  0
   -4.7421   -0.9731    0.0000 H   0  0  0  0  0  0
   -0.0975    2.1131   -0.0001 H   0  0  0  0  0  0
   -0.1191   -2.1524    0.0001 H   0  0  0  0  0  0
   -2.6145   -2.1595    0.0002 H   0  0  0  0  0  0
  1  6  1  0  0  0
  1  2  2  0  0  0
  1 18  1  0  0  0
  2  3  1  0  0  0
  2 19  1  0  0  0
  3  4  2  0  0  0
  3 20  1  0  0  0
  4 10  1  0  0  0
  4  5  1  0  0  0
  5  6  2  0  0  0
  5  7  1  0  0  0
  6 21  1  0  0  0
  7  8  2  0  0  0
  7 22  1  0  0  0
  8  9  1  0  0  0
  8 23  1  0  0  0
  9 14  1  0  0  0
  9 10  2  0  0  0
 10 11  1  0  0  0
 11 12  2  0  0  0
 11 24  1  0  0  0
 12 13  1  0  0  0
 12 15  1  0  0  0
 13 14  2  0  0  0
 13 25  1  0  0  0
 14 26  1  0  0  0
 15 16  2  0  0  0
 15 17  1  0  0  0
M  END
>  <i_m_Spin_multiplicity> (1)
1

>  <s_j_Task> (1)
Single Point

>  <s_j_QM_Method> (1)
DFT(b3lyp-d3)

>  <s_j_QM_Basis> (1)
cc-pvtz(-f)

>  <i_j_Number_of_canonical_orbitals> (1)
458

>  <i_j_Geometry_convergence_category> (1)
3

>  <r_j_Gas_Phase_Energy> (1)
-744.291098550143

>  <r_j_Final_Energy> (1)
-744.291098550143

>  <r_j_HOMO> (1)
-0.231958222461625

>  <r_j_LUMO> (1)
-0.0966053220521703

>  <r_j_Polarizability> (1)
185.990803484794

>  <r_j_QM_Dipole_(debye)> (1)
5.46682851666234

>  <r_j_QM_Dipole_X_(debye)> (1)
-5.38437723296438

>  <r_j_QM_Dipole_Y_(debye)> (1)
0.945883585927502

>  <r_j_QM_Dipole_Z_(debye)> (1)
0.000292575385035648

>  <r_j_Lowest_Frequency_(cm-1)> (1)
86.0496243829606

>  <r_j_Highest_Frequency_(cm-1)> (1)
3198.7654602848

>  <r_j_2nd_Lowest_Frequency_(cm-1)> (1)
89.0018784354742

>  <i_j_Num_Negative_Frequencies> (1)
0

>  <r_j_Zero_Point_Energy_(kcal/mol)> (1)
123.014702973729

>  <r_j_Entropy_(cal/mol/K)_298.15K_1.00E+00atm> (1)
106.168827928159

>  <r_j_Enthalpy_(kcal/mol)_298.15K_1.00E+00atm> (1)
7.90820902932152

>  <r_j_Free_Energy_(kcal/mol)_298.15K_1.00E+00atm> (1)
-23.7460270174592

>  <r_j_Internal_Energy_(kcal/mol)_298.15K_1.00E+00atm> (1)
7.31572344049425

>  <r_j_Heat_Capacity_(cal/mol/K)_298.15K_1.00E+00atm> (1)
48.5373821513123

>  <r_j_ln(Q)_298.15K_1.00E+00atm> (1)
40.0786575492249

>  <r_j_Total_Internal_Energy_(au)_298.15K_1.00E+00atm> (1)
-744.083403793896

>  <r_j_Total_Enthalpy_(au)_298.15K_1.00E+00atm> (1)
-744.082459608004

>  <r_j_Total_Free_Energy_(au)_298.15K_1.00E+00atm> (1)
-744.132903844402

>  <r_lp_tautomer_probability> (1)
1

>  <r_epik_Ionization_Penalty> (1)
  0.0000

>  <r_epik_Ionization_Penalty_Charging> (1)
  0.0000

>  <r_epik_Ionization_Penalty_Neutral> (1)
  0.0000

>  <r_epik_State_Penalty> (1)
  0.0000

>  <r_epik_Charging_Adjusted_Penalty> (1)
0

>  <i_epik_Tot_Q> (1)
0

>  <i_epik_Tot_abs_Q> (1)
2

>  <s_lp_Force_Field> (1)
S-OPLS

>  <r_lp_Energy> (1)
35.0915

>  <b_lp_Chiralities_Consistent> (1)
1

$$$$
