97747_5-dodecyldihydro-2(3H)-furanone
                    3D
 Schrodinger Suite 2021-3.
 48 48  0  0  1  0            999 V2000
   -4.8827    4.3880    0.1651 C   0  0  0  0  0  0
   -4.2850    2.9797    0.0959 C   0  0  0  0  0  0
   -2.7529    2.9772    0.0312 C   0  0  0  0  0  0
   -2.1521    1.5686   -0.0280 C   0  0  0  0  0  0
   -0.6202    1.5509   -0.0847 C   0  0  0  0  0  0
   -0.0382    0.1333   -0.1165 C   0  0  0  0  0  0
    1.4938    0.0906   -0.1552 C   0  0  0  0  0  0
    2.0513   -1.3373   -0.1421 C   0  0  0  0  0  0
    3.5824   -1.4077   -0.1566 C   0  0  0  0  0  0
    4.1139   -2.8439   -0.0859 C   0  0  0  0  0  0
    5.6435   -2.9346   -0.0857 C   0  0  0  0  0  0
    6.1493   -4.3752    0.0446 C   0  0  0  0  0  0
    7.6721   -4.4933    0.0293 C   0  0  0  0  0  0
    8.1924   -5.9473    0.0522 C   0  0  0  0  0  0
    8.3125   -6.2811   -1.4373 C   0  0  0  0  0  0
    8.5283   -4.9200   -2.0927 C   0  0  0  0  0  0
    8.9211   -4.6817   -3.2043 O   0  0  0  0  0  0
    8.1904   -3.9364   -1.2093 O   0  0  0  0  0  0
   -5.9764    4.3598    0.2100 H   0  0  0  0  0  0
   -4.5999    4.9801   -0.7130 H   0  0  0  0  0  0
   -4.5261    4.9241    1.0522 H   0  0  0  0  0  0
   -4.6096    2.3991    0.9703 H   0  0  0  0  0  0
   -4.6840    2.4529   -0.7818 H   0  0  0  0  0  0
   -2.4249    3.5525   -0.8465 H   0  0  0  0  0  0
   -2.3519    3.5079    0.9070 H   0  0  0  0  0  0
   -2.4872    0.9962    0.8491 H   0  0  0  0  0  0
   -2.5537    1.0391   -0.9040 H   0  0  0  0  0  0
   -0.2800    2.1073   -0.9697 H   0  0  0  0  0  0
   -0.2174    2.0898    0.7849 H   0  0  0  0  0  0
   -0.3913   -0.4199    0.7658 H   0  0  0  0  0  0
   -0.4383   -0.4043   -0.9882 H   0  0  0  0  0  0
    1.8537    0.6179   -1.0500 H   0  0  0  0  0  0
    1.8952    0.6450    0.7053 H   0  0  0  0  0  0
    1.6756   -1.8605    0.7493 H   0  0  0  0  0  0
    1.6541   -1.8908   -1.0051 H   0  0  0  0  0  0
    3.9653   -0.9190   -1.0634 H   0  0  0  0  0  0
    3.9815   -0.8313    0.6903 H   0  0  0  0  0  0
    3.7202   -3.3282    0.8197 H   0  0  0  0  0  0
    3.7165   -3.4208   -0.9333 H   0  0  0  0  0  0
    6.0464   -2.4965   -1.0061 H   0  0  0  0  0  0
    6.0464   -2.3349    0.7430 H   0  0  0  0  0  0
    5.7858   -4.8167    0.9826 H   0  0  0  0  0  0
    5.7389   -4.9892   -0.7693 H   0  0  0  0  0  0
    8.1018   -3.8881    0.8339 H   0  0  0  0  0  0
    9.1755   -5.9863    0.5307 H   0  0  0  0  0  0
    7.5217   -6.6118    0.6021 H   0  0  0  0  0  0
    9.1293   -6.9553   -1.6991 H   0  0  0  0  0  0
    7.3895   -6.7071   -1.8470 H   0  0  0  0  0  0
  1  2  1  0  0  0
  1 19  1  0  0  0
  1 20  1  0  0  0
  1 21  1  0  0  0
  2  3  1  0  0  0
  2 22  1  0  0  0
  2 23  1  0  0  0
  3  4  1  0  0  0
  3 24  1  0  0  0
  3 25  1  0  0  0
  4  5  1  0  0  0
  4 26  1  0  0  0
  4 27  1  0  0  0
  5  6  1  0  0  0
  5 28  1  0  0  0
  5 29  1  0  0  0
  6  7  1  0  0  0
  6 30  1  0  0  0
  6 31  1  0  0  0
  7  8  1  0  0  0
  7 32  1  0  0  0
  7 33  1  0  0  0
  8  9  1  0  0  0
  8 34  1  0  0  0
  8 35  1  0  0  0
  9 10  1  0  0  0
  9 36  1  0  0  0
  9 37  1  0  0  0
 10 11  1  0  0  0
 10 38  1  0  0  0
 10 39  1  0  0  0
 11 12  1  0  0  0
 11 40  1  0  0  0
 11 41  1  0  0  0
 12 13  1  0  0  0
 12 42  1  0  0  0
 12 43  1  0  0  0
 13 18  1  0  0  0
 13 14  1  0  0  0
 13 44  1  0  0  0
 14 15  1  0  0  0
 14 45  1  0  0  0
 14 46  1  0  0  0
 15 16  1  0  0  0
 15 47  1  0  0  0
 15 48  1  0  0  0
 16 17  2  0  0  0
 16 18  1  0  0  0
M  END
>  <i_m_Spin_multiplicity> (1)
1

>  <s_j_Task> (1)
Single Point

>  <s_j_QM_Method> (1)
DFT(b3lyp-d3)

>  <s_j_QM_Basis> (1)
cc-pvtz(-f)

>  <i_j_Number_of_canonical_orbitals> (1)
679

>  <i_j_Geometry_convergence_category> (1)
3

>  <r_j_Gas_Phase_Energy> (1)
-778.567867573786

>  <r_j_Final_Energy> (1)
-778.567867573786

>  <r_j_HOMO> (1)
-0.29018407442117

>  <r_j_LUMO> (1)
-0.0204641639806792

>  <r_j_Polarizability> (1)
198.941881874546

>  <r_j_QM_Dipole_(debye)> (1)
4.46668770686973

>  <r_j_QM_Dipole_X_(debye)> (1)
-1.70695288882317

>  <r_j_QM_Dipole_Y_(debye)> (1)
-1.84749675520284

>  <r_j_QM_Dipole_Z_(debye)> (1)
3.69111997170973

>  <r_j_Lowest_Frequency_(cm-1)> (1)
31.4894836789545

>  <r_j_Highest_Frequency_(cm-1)> (1)
3083.45655385754

>  <r_j_2nd_Lowest_Frequency_(cm-1)> (1)
42.1272255494362

>  <i_j_Num_Negative_Frequencies> (1)
0

>  <r_j_Zero_Point_Energy_(kcal/mol)> (1)
275.475945405817

>  <r_j_Entropy_(cal/mol/K)_298.15K_1.00E+00atm> (1)
143.051451549031

>  <r_j_Enthalpy_(kcal/mol)_298.15K_1.00E+00atm> (1)
13.0228692275272

>  <r_j_Free_Energy_(kcal/mol)_298.15K_1.00E+00atm> (1)
-29.6279210518164

>  <r_j_Internal_Energy_(kcal/mol)_298.15K_1.00E+00atm> (1)
12.4303836386999

>  <r_j_Heat_Capacity_(cal/mol/K)_298.15K_1.00E+00atm> (1)
76.1050784879658

>  <r_j_ln(Q)_298.15K_1.00E+00atm> (1)
50.0061463274741

>  <r_j_Total_Internal_Energy_(au)_298.15K_1.00E+00atm> (1)
-778.109059630944

>  <r_j_Total_Enthalpy_(au)_298.15K_1.00E+00atm> (1)
-778.108115445052

>  <r_j_Total_Free_Energy_(au)_298.15K_1.00E+00atm> (1)
-778.176083806197

>  <r_lp_tautomer_probability> (1)
1

>  <r_epik_Ionization_Penalty> (1)
  0.0000

>  <r_epik_Ionization_Penalty_Charging> (1)
  0.0000

>  <r_epik_Ionization_Penalty_Neutral> (1)
  0.0000

>  <r_epik_State_Penalty> (1)
  0.0000

>  <r_epik_Charging_Adjusted_Penalty> (1)
0

>  <i_epik_Tot_Q> (1)
0

>  <i_epik_Tot_abs_Q> (1)
0

>  <s_lp_Force_Field> (1)
S-OPLS

>  <r_lp_Energy> (1)
3.27351

>  <b_lp_Chiralities_Consistent> (1)
1

>  <s_epik_Chemistry_Notes> (1)
This compound has an ester and may undergo hydrolysis at high or low pH.

$$$$
