97746_5-decyldihydro-2(3H)-furanone
                    3D
 Schrodinger Suite 2021-3.
 42 42  0  0  1  0            999 V2000
   -4.2150    3.0830   -0.0726 C   0  0  0  0  0  0
   -2.6873    2.9946   -0.0114 C   0  0  0  0  0  0
   -2.1667    1.5522   -0.0118 C   0  0  0  0  0  0
   -0.6379    1.4608    0.0440 C   0  0  0  0  0  0
   -0.1045    0.0237    0.0330 C   0  0  0  0  0  0
    1.4261   -0.0485    0.0733 C   0  0  0  0  0  0
    1.9790   -1.4777    0.0413 C   0  0  0  0  0  0
    3.5110   -1.5269    0.0559 C   0  0  0  0  0  0
    4.0788   -2.9489    0.0028 C   0  0  0  0  0  0
    5.6114   -2.9733   -0.0099 C   0  0  0  0  0  0
    6.2008   -4.3727   -0.0634 C   0  0  0  0  0  0
    7.7378   -4.4459   -0.0848 C   0  0  0  0  0  0
    8.0120   -5.7743    0.6225 C   0  0  0  0  0  0
    6.8121   -5.9276    1.5538 C   0  0  0  0  0  0
    6.6960   -6.6487    2.5095 O   0  0  0  0  0  0
    5.8150   -5.0948    1.1374 O   0  0  0  0  0  0
   -4.5587    4.1227   -0.0718 H   0  0  0  0  0  0
   -4.6738    2.5790    0.7859 H   0  0  0  0  0  0
   -4.6012    2.6046   -0.9801 H   0  0  0  0  0  0
   -2.2531    3.5346   -0.8640 H   0  0  0  0  0  0
   -2.3244    3.5089    0.8891 H   0  0  0  0  0  0
   -2.5969    1.0099    0.8425 H   0  0  0  0  0  0
   -2.5302    1.0355   -0.9119 H   0  0  0  0  0  0
   -0.2116    2.0106   -0.8076 H   0  0  0  0  0  0
   -0.2762    1.9750    0.9461 H   0  0  0  0  0  0
   -0.5196   -0.5275    0.8888 H   0  0  0  0  0  0
   -0.4696   -0.4932   -0.8661 H   0  0  0  0  0  0
    1.8359    0.5158   -0.7769 H   0  0  0  0  0  0
    1.7899    0.4613    0.9769 H   0  0  0  0  0  0
    1.5870   -2.0429    0.8985 H   0  0  0  0  0  0
    1.6072   -1.9918   -0.8567 H   0  0  0  0  0  0
    3.8987   -0.9484   -0.7954 H   0  0  0  0  0  0
    3.8821   -1.0214    0.9589 H   0  0  0  0  0  0
    3.7210   -3.5277    0.8624 H   0  0  0  0  0  0
    3.7002   -3.4606   -0.8936 H   0  0  0  0  0  0
    5.9898   -2.4167   -0.8787 H   0  0  0  0  0  0
    6.0031   -2.4706    0.8841 H   0  0  0  0  0  0
    5.7814   -4.9244   -0.9178 H   0  0  0  0  0  0
    8.1368   -4.3866   -1.1000 H   0  0  0  0  0  0
    8.1524   -3.6123    0.4933 H   0  0  0  0  0  0
    8.0064   -6.6215   -0.0742 H   0  0  0  0  0  0
    8.9403   -5.8206    1.1939 H   0  0  0  0  0  0
  1  2  1  0  0  0
  1 17  1  0  0  0
  1 18  1  0  0  0
  1 19  1  0  0  0
  2  3  1  0  0  0
  2 20  1  0  0  0
  2 21  1  0  0  0
  3  4  1  0  0  0
  3 22  1  0  0  0
  3 23  1  0  0  0
  4  5  1  0  0  0
  4 24  1  0  0  0
  4 25  1  0  0  0
  5  6  1  0  0  0
  5 26  1  0  0  0
  5 27  1  0  0  0
  6  7  1  0  0  0
  6 28  1  0  0  0
  6 29  1  0  0  0
  7  8  1  0  0  0
  7 30  1  0  0  0
  7 31  1  0  0  0
  8  9  1  0  0  0
  8 32  1  0  0  0
  8 33  1  0  0  0
  9 10  1  0  0  0
  9 34  1  0  0  0
  9 35  1  0  0  0
 10 11  1  0  0  0
 10 36  1  0  0  0
 10 37  1  0  0  0
 11 16  1  0  0  0
 11 12  1  0  0  0
 11 38  1  0  0  0
 12 13  1  0  0  0
 12 39  1  0  0  0
 12 40  1  0  0  0
 13 14  1  0  0  0
 13 41  1  0  0  0
 13 42  1  0  0  0
 14 15  2  0  0  0
 14 16  1  0  0  0
M  END
>  <i_m_Spin_multiplicity> (1)
1

>  <s_j_Task> (1)
Single Point

>  <s_j_QM_Method> (1)
DFT(b3lyp-d3)

>  <s_j_QM_Basis> (1)
cc-pvtz(-f)

>  <i_j_Number_of_canonical_orbitals> (1)
597

>  <i_j_Geometry_convergence_category> (1)
0

>  <r_j_Gas_Phase_Energy> (1)
-699.909955462876

>  <r_j_Final_Energy> (1)
-699.909955462876

>  <r_j_HOMO> (1)
-0.299390418896271

>  <r_j_LUMO> (1)
-0.0335885497560094

>  <r_j_Polarizability> (1)
174.867063710188

>  <r_j_QM_Dipole_(debye)> (1)
4.47790304684154

>  <r_j_QM_Dipole_X_(debye)> (1)
1.25936528326627

>  <r_j_QM_Dipole_Y_(debye)> (1)
2.43364812538733

>  <r_j_QM_Dipole_Z_(debye)> (1)
-3.54160579144759

>  <r_j_Lowest_Frequency_(cm-1)> (1)
36.5682395293718

>  <r_j_Highest_Frequency_(cm-1)> (1)
3082.69390396682

>  <r_j_2nd_Lowest_Frequency_(cm-1)> (1)
49.5368304955806

>  <i_j_Num_Negative_Frequencies> (1)
0

>  <r_j_Zero_Point_Energy_(kcal/mol)> (1)
239.654514149065

>  <r_j_Entropy_(cal/mol/K)_298.15K_1.00E+00atm> (1)
132.349234957475

>  <r_j_Enthalpy_(kcal/mol)_298.15K_1.00E+00atm> (1)
11.5236404775654

>  <r_j_Free_Energy_(kcal/mol)_298.15K_1.00E+00atm> (1)
-27.9362839250058

>  <r_j_Internal_Energy_(kcal/mol)_298.15K_1.00E+00atm> (1)
10.9311548887381

>  <r_j_Heat_Capacity_(cal/mol/K)_298.15K_1.00E+00atm> (1)
66.6727698634847

>  <r_j_ln(Q)_298.15K_1.00E+00atm> (1)
47.1509931242395

>  <r_j_Total_Internal_Energy_(au)_298.15K_1.00E+00atm> (1)
-699.51062177786

>  <r_j_Total_Enthalpy_(au)_298.15K_1.00E+00atm> (1)
-699.509677591968

>  <r_j_Total_Free_Energy_(au)_298.15K_1.00E+00atm> (1)
-699.572560984632

>  <r_lp_tautomer_probability> (1)
1

>  <r_epik_Ionization_Penalty> (1)
  0.0000

>  <r_epik_Ionization_Penalty_Charging> (1)
  0.0000

>  <r_epik_Ionization_Penalty_Neutral> (1)
  0.0000

>  <r_epik_State_Penalty> (1)
  0.0000

>  <r_epik_Charging_Adjusted_Penalty> (1)
0

>  <i_epik_Tot_Q> (1)
0

>  <i_epik_Tot_abs_Q> (1)
0

>  <s_lp_Force_Field> (1)
S-OPLS

>  <r_lp_Energy> (1)
1.04468

>  <b_lp_Chiralities_Consistent> (1)
1

>  <s_epik_Chemistry_Notes> (1)
This compound has an ester and may undergo hydrolysis at high or low pH.

$$$$
