980_4-Nitrophenol
                    3D
 Schrodinger Suite 2021-3.
 14 14  0  0  1  0            999 V2000
   -0.6781    1.2280    0.0000 C   0  0  0  0  0  0
   -2.0488    1.2359    0.0000 C   0  0  0  0  0  0
   -2.8438    0.0116    0.0000 C   0  0  0  0  0  0
   -2.0555   -1.2169    0.0000 C   0  0  0  0  0  0
   -0.6848   -1.2164    0.0000 C   0  0  0  0  0  0
    0.0348    0.0039    0.0000 C   0  0  0  0  0  0
    1.4470   -0.0001    0.0000 N   0  3  1  0  0  0
    2.0575   -1.0965    0.0000 O   0  0  0  0  0  0
    2.0634    1.0930    0.0000 O   0  5  0  0  0  0
   -4.0972    0.0152    0.0000 O   0  5  0  0  0  0
   -0.1059    2.1497    0.0000 H   0  0  0  0  0  0
   -2.6004    2.1732    0.0000 H   0  0  0  0  0  0
   -2.6119   -2.1514    0.0000 H   0  0  0  0  0  0
   -0.1176   -2.1411    0.0000 H   0  0  0  0  0  0
  1  6  1  0  0  0
  1  2  2  0  0  0
  1 11  1  0  0  0
  2  3  1  0  0  0
  2 12  1  0  0  0
  3  4  2  0  0  0
  3 10  1  0  0  0
  4  5  1  0  0  0
  4 13  1  0  0  0
  5  6  2  0  0  0
  5 14  1  0  0  0
  6  7  1  0  0  0
  7  8  2  0  0  0
  7  9  1  0  0  0
M  END
>  <i_m_Spin_multiplicity> (1)
1

>  <s_j_Task> (1)
Single Point

>  <s_j_QM_Method> (1)
DFT(b3lyp-d3)

>  <s_j_QM_Basis> (1)
cc-pvtz(-f)

>  <i_j_Number_of_canonical_orbitals> (1)
262

>  <i_j_Geometry_convergence_category> (1)
0

>  <r_j_Gas_Phase_Energy> (1)
-511.623250433566

>  <r_j_Final_Energy> (1)
-511.623250433566

>  <r_j_HOMO> (1)
-0.0549969281730363

>  <r_j_LUMO> (1)
0.0720264826374546

>  <r_j_Polarizability> (1)
103.135914442194

>  <r_j_QM_Dipole_(debye)> (1)
1.10007479689372

>  <r_j_QM_Dipole_X_(debye)> (1)
1.10007198676369

>  <r_j_QM_Dipole_Y_(debye)> (1)
-0.00248648987175785

>  <r_j_QM_Dipole_Z_(debye)> (1)
-8.16451897632702e-06

>  <r_j_Lowest_Frequency_(cm-1)> (1)
112.813687556117

>  <r_j_Highest_Frequency_(cm-1)> (1)
3152.36218241542

>  <r_j_2nd_Lowest_Frequency_(cm-1)> (1)
115.308462798608

>  <i_j_Num_Negative_Frequencies> (1)
0

>  <r_j_Zero_Point_Energy_(kcal/mol)> (1)
58.7253948474587

>  <r_j_Entropy_(cal/mol/K)_298.15K_1.00E+00atm> (1)
86.2818310969116

>  <r_j_Enthalpy_(kcal/mol)_298.15K_1.00E+00atm> (1)
5.2821527694076

>  <r_j_Free_Energy_(kcal/mol)_298.15K_1.00E+00atm> (1)
-20.4427751721366

>  <r_j_Internal_Energy_(kcal/mol)_298.15K_1.00E+00atm> (1)
4.68966718058033

>  <r_j_Heat_Capacity_(cal/mol/K)_298.15K_1.00E+00atm> (1)
28.5387591763815

>  <r_j_ln(Q)_298.15K_1.00E+00atm> (1)
34.5034133447864

>  <r_j_Total_Internal_Energy_(au)_298.15K_1.00E+00atm> (1)
-511.522192098896

>  <r_j_Total_Enthalpy_(au)_298.15K_1.00E+00atm> (1)
-511.521247913003

>  <r_j_Total_Free_Energy_(au)_298.15K_1.00E+00atm> (1)
-511.56224319542

>  <r_epik_Ionization_Penalty> (1)
  0.2846

>  <r_epik_Ionization_Penalty_Charging> (1)
  0.2846

>  <r_epik_Ionization_Penalty_Neutral> (1)
  0.0000

>  <r_epik_State_Penalty> (1)
  0.2773

>  <r_epik_Charging_Adjusted_Penalty> (1)
0.561911297694573

>  <i_epik_Tot_Q> (1)
-1

>  <i_epik_Tot_abs_Q> (1)
3

>  <s_lp_Force_Field> (1)
S-OPLS

>  <r_lp_Energy> (1)
10.996284

>  <b_lp_Chiralities_Consistent> (1)
1

$$$$
