9869_Trimethylfluorosilane
                    3D
 Schrodinger Suite 2021-3.
 14 13  0  0  1  0            999 V2000
    0.0200   -0.0111    0.0000 C   0  0  0  0  0  0
    1.8945    0.0441    0.0000 Si  0  0  0  0  0  0
    2.5510    0.8752   -1.5478 C   0  0  0  0  0  0
    2.5510    0.8752    1.5478 C   0  0  0  0  0  0
    2.4327   -1.4948    0.0000 F   0  0  0  0  0  0
   -0.3977    1.0024   -0.0001 H   0  0  0  0  0  0
   -0.3621   -0.5298    0.8853 H   0  0  0  0  0  0
   -0.3621   -0.5301   -0.8852 H   0  0  0  0  0  0
    2.2162    1.9178   -1.5995 H   0  0  0  0  0  0
    2.2001    0.3666   -2.4517 H   0  0  0  0  0  0
    3.6458    0.8747   -1.5648 H   0  0  0  0  0  0
    2.2163    1.9177    1.5995 H   0  0  0  0  0  0
    3.6458    0.8746    1.5648 H   0  0  0  0  0  0
    2.2001    0.3665    2.4517 H   0  0  0  0  0  0
  1  2  1  0  0  0
  1  6  1  0  0  0
  1  7  1  0  0  0
  1  8  1  0  0  0
  2  3  1  0  0  0
  2  4  1  0  0  0
  2  5  1  0  0  0
  3  9  1  0  0  0
  3 10  1  0  0  0
  3 11  1  0  0  0
  4 12  1  0  0  0
  4 13  1  0  0  0
  4 14  1  0  0  0
M  END
>  <i_m_Spin_multiplicity> (1)
1

>  <s_j_Task> (1)
Single Point

>  <s_j_QM_Method> (1)
DFT(b3lyp-d3)

>  <s_j_QM_Basis> (1)
cc-pvtz(-f)

>  <i_j_Number_of_canonical_orbitals> (1)
200

>  <i_j_Geometry_convergence_category> (1)
3

>  <r_j_Gas_Phase_Energy> (1)
-509.303411317762

>  <r_j_Final_Energy> (1)
-509.303411317762

>  <r_j_HOMO> (1)
-0.303208400489356

>  <r_j_LUMO> (1)
0.0226300683323545

>  <r_j_Polarizability> (1)
60.006133262167

>  <r_j_QM_Dipole_(debye)> (1)
1.86605392168226

>  <r_j_QM_Dipole_X_(debye)> (1)
-0.615031278005306

>  <r_j_QM_Dipole_Y_(debye)> (1)
1.761787094311

>  <r_j_QM_Dipole_Z_(debye)> (1)
-4.48121837148416e-06

>  <r_j_Lowest_Frequency_(cm-1)> (1)
196.724797598406

>  <r_j_Highest_Frequency_(cm-1)> (1)
3064.50510708846

>  <r_j_2nd_Lowest_Frequency_(cm-1)> (1)
196.961455750699

>  <i_j_Num_Negative_Frequencies> (1)
0

>  <r_j_Zero_Point_Energy_(kcal/mol)> (1)
71.1257723243926

>  <r_j_Entropy_(cal/mol/K)_298.15K_1.00E+00atm> (1)
83.5225863042571

>  <r_j_Enthalpy_(kcal/mol)_298.15K_1.00E+00atm> (1)
5.52991485898442

>  <r_j_Free_Energy_(kcal/mol)_298.15K_1.00E+00atm> (1)
-19.3723442476298

>  <r_j_Internal_Energy_(kcal/mol)_298.15K_1.00E+00atm> (1)
4.93742927015714

>  <r_j_Heat_Capacity_(cal/mol/K)_298.15K_1.00E+00atm> (1)
28.1813508585519

>  <r_j_ln(Q)_298.15K_1.00E+00atm> (1)
32.6967349298303

>  <r_j_Total_Internal_Energy_(au)_298.15K_1.00E+00atm> (1)
-509.182196889565

>  <r_j_Total_Enthalpy_(au)_298.15K_1.00E+00atm> (1)
-509.181252703673

>  <r_j_Total_Free_Energy_(au)_298.15K_1.00E+00atm> (1)
-509.220936979842

>  <r_lp_tautomer_probability> (1)
1

>  <r_epik_Ionization_Penalty> (1)
  0.0000

>  <r_epik_Ionization_Penalty_Charging> (1)
  0.0000

>  <r_epik_Ionization_Penalty_Neutral> (1)
  0.0000

>  <r_epik_State_Penalty> (1)
  0.0000

>  <r_epik_Charging_Adjusted_Penalty> (1)
0

>  <i_epik_Tot_Q> (1)
0

>  <i_epik_Tot_abs_Q> (1)
0

>  <s_lp_Force_Field> (1)
S-OPLS

>  <r_lp_Energy> (1)
-5.241269

>  <b_lp_Chiralities_Consistent> (1)
1

$$$$
