9877768_5-nonyldihydro-2(3H)-furanone
                    3D
 Schrodinger Suite 2021-3.
 39 39  0  0  1  0            999 V2000
   -2.4229    3.8582   -1.1248 C   0  0  0  0  0  0
   -2.7170    2.9274    0.0573 C   0  0  0  0  0  0
   -2.1007    1.5262   -0.0779 C   0  0  0  0  0  0
   -0.5663    1.5008   -0.0749 C   0  0  0  0  0  0
    0.0074    0.0795   -0.1088 C   0  0  0  0  0  0
    1.5394    0.0335   -0.0836 C   0  0  0  0  0  0
    2.0981   -1.3940   -0.0790 C   0  0  0  0  0  0
    3.6283   -1.4511   -0.0248 C   0  0  0  0  0  0
    4.1668   -2.8857    0.0187 C   0  0  0  0  0  0
    5.6828   -2.9682    0.0798 C   0  0  0  0  0  0
    6.2696   -4.3896    0.1385 C   0  0  0  0  0  0
    7.6159   -4.2168   -0.5673 C   0  0  0  0  0  0
    7.3599   -3.0585   -1.5282 C   0  0  0  0  0  0
    8.0041   -2.7290   -2.4890 O   0  0  0  0  0  0
    6.2378   -2.3908   -1.1333 O   0  0  0  0  0  0
   -2.9349    4.8191   -1.0089 H   0  0  0  0  0  0
   -2.7605    3.4123   -2.0679 H   0  0  0  0  0  0
   -1.3526    4.0661   -1.2222 H   0  0  0  0  0  0
   -2.3579    3.3906    0.9867 H   0  0  0  0  0  0
   -3.8039    2.8251    0.1695 H   0  0  0  0  0  0
   -2.4638    0.8978    0.7470 H   0  0  0  0  0  0
   -2.4684    1.0563   -1.0016 H   0  0  0  0  0  0
   -0.1783    2.0647   -0.9331 H   0  0  0  0  0  0
   -0.1981    2.0199    0.8220 H   0  0  0  0  0  0
   -0.3846   -0.4888    0.7471 H   0  0  0  0  0  0
   -0.3575   -0.4388   -1.0071 H   0  0  0  0  0  0
    1.9380    0.5793   -0.9503 H   0  0  0  0  0  0
    1.9040    0.5684    0.8050 H   0  0  0  0  0  0
    1.6833   -1.9407    0.7805 H   0  0  0  0  0  0
    1.7457   -1.9259   -0.9741 H   0  0  0  0  0  0
    4.0540   -0.9376   -0.8949 H   0  0  0  0  0  0
    3.9829   -0.9042    0.8605 H   0  0  0  0  0  0
    3.7664   -3.4114    0.8967 H   0  0  0  0  0  0
    3.8290   -3.4420   -0.8653 H   0  0  0  0  0  0
    6.0578   -2.3667    0.9210 H   0  0  0  0  0  0
    6.3436   -4.7599    1.1637 H   0  0  0  0  0  0
    5.6269   -5.0749   -0.4254 H   0  0  0  0  0  0
    8.4088   -3.9087    0.1251 H   0  0  0  0  0  0
    7.9754   -5.0887   -1.1159 H   0  0  0  0  0  0
  1  2  1  0  0  0
  1 16  1  0  0  0
  1 17  1  0  0  0
  1 18  1  0  0  0
  2  3  1  0  0  0
  2 19  1  0  0  0
  2 20  1  0  0  0
  3  4  1  0  0  0
  3 21  1  0  0  0
  3 22  1  0  0  0
  4  5  1  0  0  0
  4 23  1  0  0  0
  4 24  1  0  0  0
  5  6  1  0  0  0
  5 25  1  0  0  0
  5 26  1  0  0  0
  6  7  1  0  0  0
  6 27  1  0  0  0
  6 28  1  0  0  0
  7  8  1  0  0  0
  7 29  1  0  0  0
  7 30  1  0  0  0
  8  9  1  0  0  0
  8 31  1  0  0  0
  8 32  1  0  0  0
  9 10  1  0  0  0
  9 33  1  0  0  0
  9 34  1  0  0  0
 10 15  1  0  0  0
 10 11  1  0  0  0
 10 35  1  0  0  0
 11 12  1  0  0  0
 11 36  1  0  0  0
 11 37  1  0  0  0
 12 13  1  0  0  0
 12 38  1  0  0  0
 12 39  1  0  0  0
 13 14  2  0  0  0
 13 15  1  0  0  0
M  END
>  <i_m_Spin_multiplicity> (1)
1

>  <s_j_Task> (1)
Single Point

>  <s_j_QM_Method> (1)
DFT(b3lyp-d3)

>  <s_j_QM_Basis> (1)
cc-pvtz(-f)

>  <i_j_Number_of_canonical_orbitals> (1)
558

>  <i_j_Geometry_convergence_category> (1)
3

>  <r_j_Gas_Phase_Energy> (1)
-660.57965437937

>  <r_j_Final_Energy> (1)
-660.57965437937

>  <r_j_HOMO> (1)
-0.282771456131476

>  <r_j_LUMO> (1)
-0.0113395536227799

>  <r_j_Polarizability> (1)
161.719548396631

>  <r_j_QM_Dipole_(debye)> (1)
4.51044483484535

>  <r_j_QM_Dipole_X_(debye)> (1)
-1.90992618064292

>  <r_j_QM_Dipole_Y_(debye)> (1)
-1.88238760208987

>  <r_j_QM_Dipole_Z_(debye)> (1)
3.62669429483327

>  <r_j_Lowest_Frequency_(cm-1)> (1)
41.5212696121434

>  <r_j_Highest_Frequency_(cm-1)> (1)
3082.54052660434

>  <r_j_2nd_Lowest_Frequency_(cm-1)> (1)
59.6573310190174

>  <i_j_Num_Negative_Frequencies> (1)
0

>  <r_j_Zero_Point_Energy_(kcal/mol)> (1)
221.902316620412

>  <r_j_Entropy_(cal/mol/K)_298.15K_1.00E+00atm> (1)
126.538163695961

>  <r_j_Enthalpy_(kcal/mol)_298.15K_1.00E+00atm> (1)
10.7057359563841

>  <r_j_Free_Energy_(kcal/mol)_298.15K_1.00E+00atm> (1)
-27.0216175495668

>  <r_j_Internal_Energy_(kcal/mol)_298.15K_1.00E+00atm> (1)
10.1132503675569

>  <r_j_Heat_Capacity_(cal/mol/K)_298.15K_1.00E+00atm> (1)
61.8408269104412

>  <r_j_ln(Q)_298.15K_1.00E+00atm> (1)
45.6072148574137

>  <r_j_Total_Internal_Energy_(au)_298.15K_1.00E+00atm> (1)
-660.209914035869

>  <r_j_Total_Enthalpy_(au)_298.15K_1.00E+00atm> (1)
-660.208969849977

>  <r_j_Total_Free_Energy_(au)_298.15K_1.00E+00atm> (1)
-660.269092215152

>  <r_lp_tautomer_probability> (1)
1

>  <r_epik_Ionization_Penalty> (1)
  0.0000

>  <r_epik_Ionization_Penalty_Charging> (1)
  0.0000

>  <r_epik_Ionization_Penalty_Neutral> (1)
  0.0000

>  <r_epik_State_Penalty> (1)
  0.0000

>  <r_epik_Charging_Adjusted_Penalty> (1)
0

>  <i_epik_Tot_Q> (1)
0

>  <i_epik_Tot_abs_Q> (1)
0

>  <s_lp_Force_Field> (1)
S-OPLS

>  <r_lp_Energy> (1)
1.00847

>  <b_lp_Chiralities_Consistent> (1)
1

>  <s_epik_Chemistry_Notes> (1)
This compound has an ester and may undergo hydrolysis at high or low pH.

$$$$
