99091_Syringaresinol dimethyl ether
                    3D
 Schrodinger Suite 2021-3.
 62 65  0  0  1  0            999 V2000
   -1.6849    3.5237    0.2432 C   0  0  0  0  0  0
   -2.4781    2.3947   -0.0861 O   0  0  0  0  0  0
   -1.8651    1.1786   -0.1553 C   0  0  0  0  0  0
   -0.5035    0.9579    0.0902 C   0  0  0  0  0  0
    0.0130   -0.3379    0.0202 C   0  0  0  0  0  0
   -0.8105   -1.4166   -0.3043 C   0  0  0  0  0  0
   -2.1659   -1.1939   -0.5696 C   0  0  0  0  0  0
   -2.7004    0.1044   -0.5019 C   0  0  0  0  0  0
   -4.0161    0.3356   -0.8166 O   0  0  0  0  0  0
   -4.9183    0.0884    0.2632 C   0  0  0  0  0  0
   -3.0624   -2.1696   -0.8955 O   0  0  0  0  0  0
   -2.5830   -3.5000   -1.0181 C   0  0  0  0  0  0
    1.4564   -0.5740    0.3942 C   0  0  0  0  0  0
    1.6731   -0.8942    1.8950 C   0  0  0  0  0  0
    1.9277    0.3125    2.8122 C   0  0  0  0  0  0
    3.3389    0.3635    3.0657 O   0  0  0  0  0  0
    4.0155   -0.4777    2.1320 C   0  0  0  0  0  0
    3.0195   -1.6337    1.8628 C   0  0  0  0  0  0
    3.0734   -2.2576    0.4596 C   0  0  0  0  0  0
    1.9794   -1.7116   -0.2912 O   0  0  0  0  0  0
    5.3476   -0.9281    2.6801 C   0  0  0  0  0  0
    6.3754   -1.2450    1.7890 C   0  0  0  0  0  0
    7.5847   -1.7582    2.2755 C   0  0  0  0  0  0
    7.7734   -1.9229    3.6571 C   0  0  0  0  0  0
    6.7303   -1.5983    4.5417 C   0  0  0  0  0  0
    5.5155   -1.1052    4.0538 C   0  0  0  0  0  0
    7.0066   -1.8122    5.8607 O   0  0  0  0  0  0
    6.0116   -1.4703    6.8135 C   0  0  0  0  0  0
    8.9855   -2.3537    4.1348 O   0  0  0  0  0  0
    9.0239   -3.7511    4.4296 C   0  0  0  0  0  0
    8.6407   -2.1268    1.4953 O   0  0  0  0  0  0
    8.5201   -1.9678    0.0910 C   0  0  0  0  0  0
   -2.3650    4.3771    0.2471 H   0  0  0  0  0  0
   -0.8948    3.6967   -0.4995 H   0  0  0  0  0  0
   -1.2253    3.4245    1.2362 H   0  0  0  0  0  0
    0.1559    1.7834    0.3304 H   0  0  0  0  0  0
   -0.3720   -2.4033   -0.3665 H   0  0  0  0  0  0
   -5.9197    0.3097   -0.1127 H   0  0  0  0  0  0
   -4.6993    0.7433    1.1164 H   0  0  0  0  0  0
   -4.8736   -0.9599    0.5824 H   0  0  0  0  0  0
   -3.4469   -4.1046   -1.2992 H   0  0  0  0  0  0
   -2.1728   -3.8742   -0.0705 H   0  0  0  0  0  0
   -1.8139   -3.5831   -1.7966 H   0  0  0  0  0  0
    2.0424    0.3244    0.1329 H   0  0  0  0  0  0
    0.8496   -1.5220    2.2449 H   0  0  0  0  0  0
    1.5920    1.2505    2.3468 H   0  0  0  0  0  0
    1.4170    0.2177    3.7762 H   0  0  0  0  0  0
    4.1870    0.0696    1.1891 H   0  0  0  0  0  0
    3.1176   -2.3773    2.6579 H   0  0  0  0  0  0
    4.0258   -2.0370   -0.0437 H   0  0  0  0  0  0
    2.9539   -3.3458    0.4837 H   0  0  0  0  0  0
    6.2296   -1.0864    0.7271 H   0  0  0  0  0  0
    4.7044   -0.8320    4.7150 H   0  0  0  0  0  0
    6.4413   -1.6995    7.7901 H   0  0  0  0  0  0
    5.0950   -2.0592    6.6745 H   0  0  0  0  0  0
    5.7592   -0.4031    6.7701 H   0  0  0  0  0  0
   10.0310   -3.9633    4.7953 H   0  0  0  0  0  0
    8.8331   -4.3485    3.5287 H   0  0  0  0  0  0
    8.2938   -4.0109    5.2055 H   0  0  0  0  0  0
    9.4619   -2.3205   -0.3327 H   0  0  0  0  0  0
    8.3714   -0.9162   -0.1884 H   0  0  0  0  0  0
    7.6943   -2.5656   -0.3185 H   0  0  0  0  0  0
  1  2  1  0  0  0
  1 33  1  0  0  0
  1 34  1  0  0  0
  1 35  1  0  0  0
  2  3  1  0  0  0
  3  8  1  0  0  0
  3  4  2  0  0  0
  4  5  1  0  0  0
  4 36  1  0  0  0
  5  6  2  0  0  0
  5 13  1  0  0  0
  6  7  1  0  0  0
  6 37  1  0  0  0
  7  8  2  0  0  0
  7 11  1  0  0  0
  8  9  1  0  0  0
  9 10  1  0  0  0
 10 38  1  0  0  0
 10 39  1  0  0  0
 10 40  1  0  0  0
 11 12  1  0  0  0
 12 41  1  0  0  0
 12 42  1  0  0  0
 12 43  1  0  0  0
 13 20  1  0  0  0
 13 14  1  0  0  0
 13 44  1  0  0  0
 14 18  1  0  0  0
 14 15  1  0  0  0
 14 45  1  0  0  0
 15 16  1  0  0  0
 15 46  1  0  0  0
 15 47  1  0  0  0
 16 17  1  0  0  0
 17 18  1  0  0  0
 17 21  1  0  0  0
 17 48  1  0  0  0
 18 19  1  0  0  0
 18 49  1  0  0  0
 19 20  1  0  0  0
 19 50  1  0  0  0
 19 51  1  0  0  0
 21 26  1  0  0  0
 21 22  2  0  0  0
 22 23  1  0  0  0
 22 52  1  0  0  0
 23 24  2  0  0  0
 23 31  1  0  0  0
 24 25  1  0  0  0
 24 29  1  0  0  0
 25 26  2  0  0  0
 25 27  1  0  0  0
 26 53  1  0  0  0
 27 28  1  0  0  0
 28 54  1  0  0  0
 28 55  1  0  0  0
 28 56  1  0  0  0
 29 30  1  0  0  0
 30 57  1  0  0  0
 30 58  1  0  0  0
 30 59  1  0  0  0
 31 32  1  0  0  0
 32 60  1  0  0  0
 32 61  1  0  0  0
 32 62  1  0  0  0
M  END
>  <i_m_Spin_multiplicity> (1)
1

>  <s_j_Task> (1)
Single Point

>  <s_j_QM_Method> (1)
DFT(b3lyp-d3)

>  <s_j_QM_Basis> (1)
cc-pvtz(-f)

>  <i_j_Number_of_canonical_orbitals> (1)
991

>  <i_j_Geometry_convergence_category> (1)
3

>  <r_j_Gas_Phase_Energy> (1)
-1534.8634500877

>  <r_j_Final_Energy> (1)
-1534.8634500877

>  <r_j_HOMO> (1)
-0.219070170342565

>  <r_j_LUMO> (1)
-0.0338645936362534

>  <r_j_Polarizability> (1)
319.934617182732

>  <r_j_QM_Dipole_(debye)> (1)
2.33106073780622

>  <r_j_QM_Dipole_X_(debye)> (1)
-0.874399660660271

>  <r_j_QM_Dipole_Y_(debye)> (1)
-1.65226973032836

>  <r_j_QM_Dipole_Z_(debye)> (1)
1.3925782329979

>  <r_j_Lowest_Frequency_(cm-1)> (1)
29.3307512471135

>  <r_j_Highest_Frequency_(cm-1)> (1)
3184.3601781092

>  <r_j_2nd_Lowest_Frequency_(cm-1)> (1)
31.3027932451068

>  <i_j_Num_Negative_Frequencies> (1)
0

>  <r_j_Zero_Point_Energy_(kcal/mol)> (1)
321.42407698586

>  <r_j_Entropy_(cal/mol/K)_298.15K_1.00E+00atm> (1)
185.966111839151

>  <r_j_Enthalpy_(kcal/mol)_298.15K_1.00E+00atm> (1)
19.46384255634

>  <r_j_Free_Energy_(kcal/mol)_298.15K_1.00E+00atm> (1)
-35.9819536885029

>  <r_j_Internal_Energy_(kcal/mol)_298.15K_1.00E+00atm> (1)
18.8713569675127

>  <r_j_Heat_Capacity_(cal/mol/K)_298.15K_1.00E+00atm> (1)
117.269709182729

>  <r_j_ln(Q)_298.15K_1.00E+00atm> (1)
60.7305128884622

>  <r_j_Total_Internal_Energy_(au)_298.15K_1.00E+00atm> (1)
-1534.32115479142

>  <r_j_Total_Enthalpy_(au)_298.15K_1.00E+00atm> (1)
-1534.32021060553

>  <r_j_Total_Free_Energy_(au)_298.15K_1.00E+00atm> (1)
-1534.40856910671

>  <r_lp_tautomer_probability> (1)
1

>  <r_epik_Ionization_Penalty> (1)
  0.0000

>  <r_epik_Ionization_Penalty_Charging> (1)
  0.0000

>  <r_epik_Ionization_Penalty_Neutral> (1)
  0.0000

>  <r_epik_State_Penalty> (1)
  0.0000

>  <r_epik_Charging_Adjusted_Penalty> (1)
0

>  <i_epik_Tot_Q> (1)
0

>  <i_epik_Tot_abs_Q> (1)
0

>  <s_lp_Force_Field> (1)
S-OPLS

>  <r_lp_Energy> (1)
38.966552

>  <b_lp_Chiralities_Consistent> (1)
1

$$$$
