9938_1,2-dihydronaphthalene
                    3D
 Schrodinger Suite 2021-3.
 20 21  0  0  1  0            999 V2000
    0.5651   -2.1301    0.2496 C   0  0  0  0  0  0
   -0.8957   -1.7084    0.0297 C   0  0  0  0  0  0
   -1.7999   -2.8930   -0.2438 C   0  0  0  0  0  0
   -3.1325   -2.9241    0.1604 C   0  0  0  0  0  0
   -3.9609   -3.9983   -0.1783 C   0  0  0  0  0  0
   -3.4537   -5.0527   -0.9370 C   0  0  0  0  0  0
   -2.1204   -5.0346   -1.3447 C   0  0  0  0  0  0
   -1.2804   -3.9681   -0.9999 C   0  0  0  0  0  0
    0.1365   -3.9504   -1.3825 C   0  0  0  0  0  0
    1.0109   -3.1086   -0.8104 C   0  0  0  0  0  0
    0.6760   -2.6016    1.2393 H   0  0  0  0  0  0
    1.2125   -1.2464    0.2596 H   0  0  0  0  0  0
   -1.2647   -1.1295    0.8829 H   0  0  0  0  0  0
   -0.9343   -1.0412   -0.8448 H   0  0  0  0  0  0
   -3.5302   -2.0970    0.7438 H   0  0  0  0  0  0
   -4.9966   -4.0082    0.1480 H   0  0  0  0  0  0
   -4.0920   -5.8890   -1.2072 H   0  0  0  0  0  0
   -1.7184   -5.8589   -1.9292 H   0  0  0  0  0  0
    0.4697   -4.6832   -2.1142 H   0  0  0  0  0  0
    2.0659   -3.1522   -1.0689 H   0  0  0  0  0  0
  1 10  1  0  0  0
  1  2  1  0  0  0
  1 11  1  0  0  0
  1 12  1  0  0  0
  2  3  1  0  0  0
  2 13  1  0  0  0
  2 14  1  0  0  0
  3  8  1  0  0  0
  3  4  2  0  0  0
  4  5  1  0  0  0
  4 15  1  0  0  0
  5  6  2  0  0  0
  5 16  1  0  0  0
  6  7  1  0  0  0
  6 17  1  0  0  0
  7  8  2  0  0  0
  7 18  1  0  0  0
  8  9  1  0  0  0
  9 10  2  0  0  0
  9 19  1  0  0  0
 10 20  1  0  0  0
M  END
>  <i_m_Spin_multiplicity> (1)
1

>  <s_j_Task> (1)
Single Point

>  <s_j_QM_Method> (1)
DFT(b3lyp-d3)

>  <s_j_QM_Basis> (1)
cc-pvtz(-f)

>  <i_j_Number_of_canonical_orbitals> (1)
313

>  <i_j_Geometry_convergence_category> (1)
0

>  <r_j_Gas_Phase_Energy> (1)
-387.21543548207

>  <r_j_Final_Energy> (1)
-387.21543548207

>  <r_j_HOMO> (1)
-0.235579370231952

>  <r_j_LUMO> (1)
-0.0532335886853452

>  <r_j_Polarizability> (1)
111.418468451679

>  <r_j_QM_Dipole_(debye)> (1)
0.61639624288322

>  <r_j_QM_Dipole_X_(debye)> (1)
0.358230807001362

>  <r_j_QM_Dipole_Y_(debye)> (1)
0.433411845965793

>  <r_j_QM_Dipole_Z_(debye)> (1)
0.252525620348166

>  <r_j_Lowest_Frequency_(cm-1)> (1)
159.658181022202

>  <r_j_Highest_Frequency_(cm-1)> (1)
3145.6535797814

>  <r_j_2nd_Lowest_Frequency_(cm-1)> (1)
173.084404460133

>  <i_j_Num_Negative_Frequencies> (1)
0

>  <r_j_Zero_Point_Energy_(kcal/mol)> (1)
106.100286487567

>  <r_j_Entropy_(cal/mol/K)_298.15K_1.00E+00atm> (1)
83.9827090428921

>  <r_j_Enthalpy_(kcal/mol)_298.15K_1.00E+00atm> (1)
5.16887830525425

>  <r_j_Free_Energy_(kcal/mol)_298.15K_1.00E+00atm> (1)
-19.870566395884

>  <r_j_Internal_Energy_(kcal/mol)_298.15K_1.00E+00atm> (1)
4.57639271642697

>  <r_j_Heat_Capacity_(cal/mol/K)_298.15K_1.00E+00atm> (1)
30.7764988003216

>  <r_j_ln(Q)_298.15K_1.00E+00atm> (1)
33.5376366456684

>  <r_j_Total_Internal_Energy_(au)_298.15K_1.00E+00atm> (1)
-387.039060965835

>  <r_j_Total_Enthalpy_(au)_298.15K_1.00E+00atm> (1)
-387.038116779943

>  <r_j_Total_Free_Energy_(au)_298.15K_1.00E+00atm> (1)
-387.078019675274

>  <r_lp_tautomer_probability> (1)
1

>  <r_epik_Ionization_Penalty> (1)
  0.0000

>  <r_epik_Ionization_Penalty_Charging> (1)
  0.0000

>  <r_epik_Ionization_Penalty_Neutral> (1)
  0.0000

>  <r_epik_State_Penalty> (1)
  0.0000

>  <r_epik_Charging_Adjusted_Penalty> (1)
0

>  <i_epik_Tot_Q> (1)
0

>  <i_epik_Tot_abs_Q> (1)
0

>  <s_lp_Force_Field> (1)
S-OPLS

>  <r_lp_Energy> (1)
13.8069

>  <b_lp_Chiralities_Consistent> (1)
1

$$$$
