995_Phenanthrene
                    3D
 Schrodinger Suite 2021-3.
 24 26  0  0  1  0            999 V2000
    0.8973    8.4893   -0.2173 C   0  0  0  0  0  0
   -0.1272    7.5261   -0.2631 C   0  0  0  0  0  0
    0.1813    6.1821   -0.3565 C   0  0  0  0  0  0
    1.5222    5.7344   -0.4087 C   0  0  0  0  0  0
    2.5561    6.7153   -0.3620 C   0  0  0  0  0  0
    2.2158    8.0845   -0.2664 C   0  0  0  0  0  0
    3.9296    6.3044   -0.4123 C   0  0  0  0  0  0
    4.2681    4.9916   -0.5041 C   0  0  0  0  0  0
    3.2643    3.9680   -0.5541 C   0  0  0  0  0  0
    3.6285    2.6048   -0.6497 C   0  0  0  0  0  0
    2.6703    1.6128   -0.6986 C   0  0  0  0  0  0
    1.3080    1.9609   -0.6525 C   0  0  0  0  0  0
    0.9286    3.2866   -0.5591 C   0  0  0  0  0  0
    1.8850    4.3276   -0.5071 C   0  0  0  0  0  0
    0.6498    9.5441   -0.1438 H   0  0  0  0  0  0
   -1.1668    7.8386   -0.2248 H   0  0  0  0  0  0
   -0.6305    5.4641   -0.3898 H   0  0  0  0  0  0
    3.0170    8.8183   -0.2321 H   0  0  0  0  0  0
    4.6994    7.0706   -0.3752 H   0  0  0  0  0  0
    5.3124    4.6928   -0.5415 H   0  0  0  0  0  0
    4.6846    2.3498   -0.6843 H   0  0  0  0  0  0
    2.9636    0.5697   -0.7721 H   0  0  0  0  0  0
    0.5489    1.1849   -0.6905 H   0  0  0  0  0  0
   -0.1290    3.5217   -0.5257 H   0  0  0  0  0  0
  1  6  1  0  0  0
  1  2  2  0  0  0
  1 15  1  0  0  0
  2  3  1  0  0  0
  2 16  1  0  0  0
  3  4  2  0  0  0
  3 17  1  0  0  0
  4 14  1  0  0  0
  4  5  1  0  0  0
  5  6  2  0  0  0
  5  7  1  0  0  0
  6 18  1  0  0  0
  7  8  2  0  0  0
  7 19  1  0  0  0
  8  9  1  0  0  0
  8 20  1  0  0  0
  9 14  1  0  0  0
  9 10  2  0  0  0
 10 11  1  0  0  0
 10 21  1  0  0  0
 11 12  2  0  0  0
 11 22  1  0  0  0
 12 13  1  0  0  0
 12 23  1  0  0  0
 13 14  2  0  0  0
 13 24  1  0  0  0
M  END
>  <i_m_Spin_multiplicity> (1)
1

>  <s_j_Task> (1)
Single Point

>  <s_j_QM_Method> (1)
DFT(b3lyp-d3)

>  <s_j_QM_Basis> (1)
cc-pvtz(-f)

>  <i_j_Number_of_canonical_orbitals> (1)
399

>  <i_j_Geometry_convergence_category> (1)
0

>  <r_j_Gas_Phase_Energy> (1)
-539.715482629201

>  <r_j_Final_Energy> (1)
-539.715482629201

>  <r_j_HOMO> (1)
-0.188656040654502

>  <r_j_LUMO> (1)
-0.017825024523926

>  <r_j_Polarizability> (1)
162.745919039804

>  <r_j_QM_Dipole_(debye)> (1)
0.0271890946516856

>  <r_j_QM_Dipole_X_(debye)> (1)
-0.026493929640862

>  <r_j_QM_Dipole_Y_(debye)> (1)
-0.00610882754618206

>  <r_j_QM_Dipole_Z_(debye)> (1)
-2.80388013069406e-05

>  <r_j_Lowest_Frequency_(cm-1)> (1)
119.105810828775

>  <r_j_Highest_Frequency_(cm-1)> (1)
3163.97495013487

>  <r_j_2nd_Lowest_Frequency_(cm-1)> (1)
120.239876831776

>  <i_j_Num_Negative_Frequencies> (1)
0

>  <r_j_Zero_Point_Energy_(kcal/mol)> (1)
121.440974691718

>  <r_j_Entropy_(cal/mol/K)_298.15K_1.00E+00atm> (1)
93.9696364139085

>  <r_j_Enthalpy_(kcal/mol)_298.15K_1.00E+00atm> (1)
6.38272619265211

>  <r_j_Free_Energy_(kcal/mol)_298.15K_1.00E+00atm> (1)
-21.6343209041547

>  <r_j_Internal_Energy_(kcal/mol)_298.15K_1.00E+00atm> (1)
5.79024060382483

>  <r_j_Heat_Capacity_(cal/mol/K)_298.15K_1.00E+00atm> (1)
40.028793121606

>  <r_j_ln(Q)_298.15K_1.00E+00atm> (1)
36.5145099089688

>  <r_j_Total_Internal_Energy_(au)_298.15K_1.00E+00atm> (1)
-539.512726780281

>  <r_j_Total_Enthalpy_(au)_298.15K_1.00E+00atm> (1)
-539.511782594389

>  <r_j_Total_Free_Energy_(au)_298.15K_1.00E+00atm> (1)
-539.55643060121

>  <r_lp_tautomer_probability> (1)
1

>  <r_epik_Ionization_Penalty> (1)
  0.0000

>  <r_epik_Ionization_Penalty_Charging> (1)
  0.0000

>  <r_epik_Ionization_Penalty_Neutral> (1)
  0.0000

>  <r_epik_State_Penalty> (1)
  0.0000

>  <r_epik_Charging_Adjusted_Penalty> (1)
0

>  <i_epik_Tot_Q> (1)
0

>  <i_epik_Tot_abs_Q> (1)
0

>  <s_lp_Force_Field> (1)
S-OPLS

>  <r_lp_Energy> (1)
31.2056

>  <b_lp_Chiralities_Consistent> (1)
1

$$$$
