996_Phenol
                    3D
 Schrodinger Suite 2021-3.
 13 13  0  0  1  0            999 V2000
   -2.7861   -0.0059    0.0000 C   0  0  0  0  0  0
   -2.0733    1.1960    0.0000 C   0  0  0  0  0  0
   -0.6810    1.1984    0.0000 C   0  0  0  0  0  0
    0.0114   -0.0166    0.0000 C   0  0  0  0  0  0
   -0.6932   -1.2251    0.0000 C   0  0  0  0  0  0
   -2.0880   -1.2132    0.0000 C   0  0  0  0  0  0
    1.3783    0.0418    0.0000 O   0  0  0  0  0  0
   -3.8715   -0.0005    0.0000 H   0  0  0  0  0  0
   -2.6057    2.1430    0.0000 H   0  0  0  0  0  0
   -0.1143    2.1235    0.0000 H   0  0  0  0  0  0
   -0.1507   -2.1685    0.0000 H   0  0  0  0  0  0
   -2.6280   -2.1558    0.0000 H   0  0  0  0  0  0
    1.7339   -0.8565    0.0000 H   0  0  0  0  0  0
  1  6  1  0  0  0
  1  2  2  0  0  0
  1  8  1  0  0  0
  2  3  1  0  0  0
  2  9  1  0  0  0
  3  4  2  0  0  0
  3 10  1  0  0  0
  4  5  1  0  0  0
  4  7  1  0  0  0
  5  6  2  0  0  0
  5 11  1  0  0  0
  6 12  1  0  0  0
  7 13  1  0  0  0
M  END
>  <i_m_Spin_multiplicity> (1)
1

>  <s_j_Task> (1)
Single Point

>  <s_j_QM_Method> (1)
DFT(b3lyp-d3)

>  <s_j_QM_Basis> (1)
cc-pvtz(-f)

>  <i_j_Number_of_canonical_orbitals> (1)
211

>  <i_j_Geometry_convergence_category> (1)
3

>  <r_j_Gas_Phase_Energy> (1)
-307.580955203307

>  <r_j_Final_Energy> (1)
-307.580955203307

>  <r_j_HOMO> (1)
-0.229987521255084

>  <r_j_LUMO> (1)
-0.0155672041617124

>  <r_j_Polarizability> (1)
68.072263600871

>  <r_j_QM_Dipole_(debye)> (1)
1.28583035975252

>  <r_j_QM_Dipole_X_(debye)> (1)
0.0820130111825161

>  <r_j_QM_Dipole_Y_(debye)> (1)
-1.28321221162175

>  <r_j_QM_Dipole_Z_(debye)> (1)
-1.70220403994716e-06

>  <r_j_Lowest_Frequency_(cm-1)> (1)
237.08350453058

>  <r_j_Highest_Frequency_(cm-1)> (1)
3769.85757279438

>  <r_j_2nd_Lowest_Frequency_(cm-1)> (1)
412.010834836306

>  <i_j_Num_Negative_Frequencies> (1)
0

>  <r_j_Zero_Point_Energy_(kcal/mol)> (1)
65.3748429090988

>  <r_j_Entropy_(cal/mol/K)_298.15K_1.00E+00atm> (1)
74.1588786425177

>  <r_j_Enthalpy_(kcal/mol)_298.15K_1.00E+00atm> (1)
3.97876539771701

>  <r_j_Free_Energy_(kcal/mol)_298.15K_1.00E+00atm> (1)
-18.1317042695497

>  <r_j_Internal_Energy_(kcal/mol)_298.15K_1.00E+00atm> (1)
3.38627980888973

>  <r_j_Heat_Capacity_(cal/mol/K)_298.15K_1.00E+00atm> (1)
21.5047827851536

>  <r_j_ln(Q)_298.15K_1.00E+00atm> (1)
30.6027768632117

>  <r_j_Total_Internal_Energy_(au)_298.15K_1.00E+00atm> (1)
-307.471377378581

>  <r_j_Total_Enthalpy_(au)_298.15K_1.00E+00atm> (1)
-307.470433192689

>  <r_j_Total_Free_Energy_(au)_298.15K_1.00E+00atm> (1)
-307.505668469165

>  <r_lp_tautomer_probability> (1)
1

>  <r_epik_Ionization_Penalty> (1)
  0.0009

>  <r_epik_Ionization_Penalty_Charging> (1)
  0.0000

>  <r_epik_Ionization_Penalty_Neutral> (1)
  0.0009

>  <r_epik_State_Penalty> (1)
  0.0006

>  <r_epik_Charging_Adjusted_Penalty> (1)
0.000579828

>  <i_epik_Tot_Q> (1)
0

>  <i_epik_Tot_abs_Q> (1)
0

>  <s_lp_Force_Field> (1)
S-OPLS

>  <r_lp_Energy> (1)
6.67389

>  <b_lp_Chiralities_Consistent> (1)
1

$$$$
