9984_Coniferaldehyde
                    3D
 Schrodinger Suite 2021-3.
 23 23  0  0  1  0            999 V2000
   -0.8023    1.0429    0.0000 C   0  0  0  0  0  0
   -0.0021   -0.1305    0.0000 O   0  0  0  0  0  0
    1.3488    0.0186    0.0000 C   0  0  0  0  0  0
    2.0897   -1.1919    0.0000 C   0  0  0  0  0  0
    3.4808   -1.1442    0.0000 C   0  0  0  0  0  0
    4.1503    0.0783    0.0000 C   0  0  0  0  0  0
    3.4378    1.2838    0.0001 C   0  0  0  0  0  0
    2.0247    1.2303    0.0001 C   0  0  0  0  0  0
    4.1725    2.5411    0.0001 C   0  0  0  0  0  0
    3.6811    3.8000    0.0000 C   0  0  0  0  0  0
    4.5740    4.9575    0.0000 C   0  0  0  0  0  0
    4.1999    6.1187   -0.0002 O   0  0  0  0  0  0
    1.3771   -2.3484    0.0000 O   0  0  0  0  0  0
   -1.8370    0.6984    0.0000 H   0  0  0  0  0  0
   -0.6238    1.6544   -0.8943 H   0  0  0  0  0  0
   -0.6238    1.6544    0.8944 H   0  0  0  0  0  0
    4.0423   -2.0755   -0.0001 H   0  0  0  0  0  0
    5.2361    0.0938    0.0000 H   0  0  0  0  0  0
    1.4610    2.1539    0.0001 H   0  0  0  0  0  0
    5.2588    2.4362    0.0002 H   0  0  0  0  0  0
    2.6170    4.0199   -0.0001 H   0  0  0  0  0  0
    5.6612    4.7068    0.0001 H   0  0  0  0  0  0
    1.9904   -3.0953    0.0000 H   0  0  0  0  0  0
  1  2  1  0  0  0
  1 14  1  0  0  0
  1 15  1  0  0  0
  1 16  1  0  0  0
  2  3  1  0  0  0
  3  8  1  0  0  0
  3  4  2  0  0  0
  4  5  1  0  0  0
  4 13  1  0  0  0
  5  6  2  0  0  0
  5 17  1  0  0  0
  6  7  1  0  0  0
  6 18  1  0  0  0
  7  8  2  0  0  0
  7  9  1  0  0  0
  8 19  1  0  0  0
  9 10  2  0  0  0
  9 20  1  0  0  0
 10 11  1  0  0  0
 10 21  1  0  0  0
 11 12  2  0  0  0
 11 22  1  0  0  0
 13 23  1  0  0  0
M  END
>  <i_m_Spin_multiplicity> (1)
1

>  <s_j_Task> (1)
Single Point

>  <s_j_QM_Method> (1)
DFT(b3lyp-d3)

>  <s_j_QM_Basis> (1)
cc-pvtz(-f)

>  <i_j_Number_of_canonical_orbitals> (1)
381

>  <i_j_Geometry_convergence_category> (1)
0

>  <r_j_Gas_Phase_Energy> (1)
-612.940542828759

>  <r_j_Final_Energy> (1)
-612.940542828759

>  <r_j_HOMO> (1)
-0.217583378416196

>  <r_j_LUMO> (1)
-0.0673123817307977

>  <r_j_Polarizability> (1)
147.057273545053

>  <r_j_QM_Dipole_(debye)> (1)
5.15030108916781

>  <r_j_QM_Dipole_X_(debye)> (1)
-0.294314492754958

>  <r_j_QM_Dipole_Y_(debye)> (1)
-5.14188488938342

>  <r_j_QM_Dipole_Z_(debye)> (1)
0.000269755332993882

>  <r_j_Lowest_Frequency_(cm-1)> (1)
72.0862218052408

>  <r_j_Highest_Frequency_(cm-1)> (1)
3768.02096143794

>  <r_j_2nd_Lowest_Frequency_(cm-1)> (1)
93.5644837884569

>  <i_j_Num_Negative_Frequencies> (1)
0

>  <r_j_Zero_Point_Energy_(kcal/mol)> (1)
112.634623064579

>  <r_j_Entropy_(cal/mol/K)_298.15K_1.00E+00atm> (1)
105.796545431944

>  <r_j_Enthalpy_(kcal/mol)_298.15K_1.00E+00atm> (1)
7.9671694966282

>  <r_j_Free_Energy_(kcal/mol)_298.15K_1.00E+00atm> (1)
-23.5760705239058

>  <r_j_Internal_Energy_(kcal/mol)_298.15K_1.00E+00atm> (1)
7.37468390780092

>  <r_j_Heat_Capacity_(cal/mol/K)_298.15K_1.00E+00atm> (1)
45.1159699909697

>  <r_j_ln(Q)_298.15K_1.00E+00atm> (1)
39.7918041695676

>  <r_j_Total_Internal_Energy_(au)_298.15K_1.00E+00atm> (1)
-612.749295823399

>  <r_j_Total_Enthalpy_(au)_298.15K_1.00E+00atm> (1)
-612.748351637507

>  <r_j_Total_Free_Energy_(au)_298.15K_1.00E+00atm> (1)
-612.798618990477

>  <r_epik_Ionization_Penalty> (1)
  0.0992

>  <r_epik_Ionization_Penalty_Charging> (1)
  0.0000

>  <r_epik_Ionization_Penalty_Neutral> (1)
  0.0992

>  <r_epik_State_Penalty> (1)
  0.0892

>  <r_epik_Charging_Adjusted_Penalty> (1)
0.0892403964798715

>  <i_epik_Tot_Q> (1)
0

>  <i_epik_Tot_abs_Q> (1)
0

>  <s_lp_Force_Field> (1)
S-OPLS

>  <r_lp_Energy> (1)
14.020168

>  <b_lp_Chiralities_Consistent> (1)
1

$$$$
